
Trying gmin =   1.0000E-03 Note: One successful gmin step
Trying gmin =   1.0000E-04 Note: One successful gmin step
Trying gmin =   1.0000E-05 Note: One successful gmin step
Trying gmin =   1.0000E-06 Warning: Further gmin increment
Trying gmin =   5.6234E-06 Warning: Further gmin increment
Trying gmin =   8.6596E-06 Note: One successful gmin step
Trying gmin =   6.9783E-06 Warning: Further gmin increment
Trying gmin =   8.2047E-06 Note: One successful gmin step
Trying gmin =   7.7737E-06 Note: One successful gmin step
Trying gmin =   7.1692E-06 Note: One successful gmin step
Trying gmin =   6.3494E-06 Note: One successful gmin step
Trying gmin =   5.2922E-06 Note: One successful gmin step
Trying gmin =   4.0270E-06 Note: One successful gmin step
Trying gmin =   2.6730E-06 Note: One successful gmin step
Trying gmin =   1.4456E-06 Note: One successful gmin step
Trying gmin =   5.7489E-07 Note: One successful gmin step
Trying gmin =   1.4418E-07 Note: One successful gmin step
Trying gmin =   1.8109E-08 Note: One successful gmin step
Trying gmin =   1.8109E-09 Note: One successful gmin step
Trying gmin =   1.8109E-10 Note: One successful gmin step
Trying gmin =   1.8109E-11 Note: One successful gmin step
Trying gmin =   1.8109E-12 Note: One successful gmin step
Trying gmin =   1.0000E-12 Note: One successful gmin step
Note: Dynamic gmin stepping completed


Note: No compatibility mode selected!


Circuit: ** title = "your mom"

Doing analysis at TEMP = 27.000000 and TNOM = 27.000000

Warning: toxe, toxp and dtox all given and toxe != toxp + dtox; dtox ignored.

Initial Transient Solution
--------------------------

Node                                   Voltage
----                                   -------
node1                                        1
a0                                           0
a1                                           0
a2                                           0
a3                                           0
b0                                           0
b1                                           0
b2                                           0
b3                                           0
x1.x1.node5                           0.999437
x1.x1.node4                           0.103514
p0                                 0.000217751
x1.x2.node5                           0.999437
x1.x2.node4                           0.103514
x1.x3.node5                           0.999437
x1.x3.node4                           0.103514
x1.x4.node5                           0.999437
x1.x4.node4                           0.103514
x1.x5.node5                           0.999437
x1.x5.node4                           0.103514
x1.x6.node5                           0.999437
x1.x6.node4                           0.103514
x1.x7.node5                           0.999437
x1.x7.node4                           0.103514
x1.x8.node5                           0.999437
x1.x8.node4                           0.103514
x1.x9.x1.x1.x1.node5                  0.999437
x1.x9.x1.x1.x1.node4                  0.103514
x1.x9.x1.h1_carry                  0.000377338
x1.x9.x1.x1.x2.nandout                0.999722
x1.x9.x1.x1.x2.x1.node4               0.103543
x1.x9.x1.x1.x2.x2.node5               0.997896
x1.x9.x1.x1.x2.x2.outa                0.996207
x1.x9.x1.x1.x2.orout               0.000371802
x1.x9.x1.x1.x2.x3.node5               0.999005
x1.x9.x1.x1.x2.x3.node4               0.800934
x1.x9.x1.h1_sum                    0.000664014
x1.x9.x1.x2.x1.node5                  0.999437
x1.x9.x1.x2.x1.node4                  0.103201
x1.x9.x1.h2_carry                  0.000376198
x1.x9.x1.x2.x2.nandout                0.999722
x1.x9.x1.x2.x2.x1.node4               0.103993
x1.x9.x1.x2.x2.x2.node5               0.997891
x1.x9.x1.x2.x2.x2.outa                0.996197
x1.x9.x1.x2.x2.orout               0.000371837
x1.x9.x1.x2.x2.x3.node5               0.999004
x1.x9.x1.x2.x2.x3.node4               0.800934
p1                                 0.000219133
x1.x9.x1.x3.node5                     0.997891
x1.x9.x1.x3.outa                      0.996197
x1.x9.nodec0                       0.000672428
x1.x9.x2.x1.x1.node5                  0.999437
x1.x9.x2.x1.x1.node4                  0.103514
x1.x9.x2.h1_carry                  0.000377338
x1.x9.x2.x1.x2.nandout                0.999722
x1.x9.x2.x1.x2.x1.node4               0.103543
x1.x9.x2.x1.x2.x2.node5               0.997896
x1.x9.x2.x1.x2.x2.outa                0.996207
x1.x9.x2.x1.x2.orout               0.000371802
x1.x9.x2.x1.x2.x3.node5               0.999005
x1.x9.x2.x1.x2.x3.node4               0.800934
x1.x9.x2.h1_sum                    0.000664013
x1.x9.x2.x2.x1.node5                  0.999438
x1.x9.x2.x2.x1.node4                  0.103657
x1.x9.x2.h2_carry                  0.000376197
x1.x9.x2.x2.x2.nandout                0.999722
x1.x9.x2.x2.x2.x1.node4               0.103676
x1.x9.x2.x2.x2.x2.node5               0.997887
x1.x9.x2.x2.x2.x2.outa                0.996188
x1.x9.x2.x2.x2.orout               0.000371869
x1.x9.x2.x2.x2.x3.node5               0.999005
x1.x9.x2.x2.x2.x3.node4               0.800934
x1.nodes1                          0.000664013
x1.x9.x2.x3.node5                     0.997891
x1.x9.x2.x3.outa                      0.996197
x1.x9.nodec1                       0.000672428
x1.x9.x3.x1.x1.node5                  0.999437
x1.x9.x3.x1.x1.node4                  0.103514
x1.x9.x3.h1_carry                  0.000377338
x1.x9.x3.x1.x2.nandout                0.999722
x1.x9.x3.x1.x2.x1.node4               0.103543
x1.x9.x3.x1.x2.x2.node5               0.997896
x1.x9.x3.x1.x2.x2.outa                0.996207
x1.x9.x3.x1.x2.orout               0.000371802
x1.x9.x3.x1.x2.x3.node5               0.999005
x1.x9.x3.x1.x2.x3.node4               0.800934
x1.x9.x3.h1_sum                    0.000664013
x1.x9.x3.x2.x1.node5                  0.999438
x1.x9.x3.x2.x1.node4                  0.103657
x1.x9.x3.h2_carry                  0.000376197
x1.x9.x3.x2.x2.nandout                0.999722
x1.x9.x3.x2.x2.x1.node4               0.103676
x1.x9.x3.x2.x2.x2.node5               0.997887
x1.x9.x3.x2.x2.x2.outa                0.996188
x1.x9.x3.x2.x2.orout               0.000371869
x1.x9.x3.x2.x2.x3.node5               0.999005
x1.x9.x3.x2.x2.x3.node4               0.800934
x1.nodes2                          0.000664013
x1.x9.x3.x3.node5                     0.997891
x1.x9.x3.x3.outa                      0.996197
x1.x9.nodec2                       0.000672428
x1.x9.x4.x1.x1.node5                  0.999437
x1.x9.x4.x1.x1.node4                  0.103514
x1.x9.x4.h1_carry                  0.000377338
x1.x9.x4.x1.x2.nandout                0.999722
x1.x9.x4.x1.x2.x1.node4               0.103543
x1.x9.x4.x1.x2.x2.node5               0.997896
x1.x9.x4.x1.x2.x2.outa                0.996207
x1.x9.x4.x1.x2.orout               0.000371802
x1.x9.x4.x1.x2.x3.node5               0.999005
x1.x9.x4.x1.x2.x3.node4               0.800934
x1.x9.x4.h1_sum                    0.000664013
x1.x9.x4.x2.x1.node5                  0.999438
x1.x9.x4.x2.x1.node4                  0.103657
x1.x9.x4.h2_carry                  0.000376197
x1.x9.x4.x2.x2.nandout                0.999722
x1.x9.x4.x2.x2.x1.node4               0.103676
x1.x9.x4.x2.x2.x2.node5               0.997887
x1.x9.x4.x2.x2.x2.outa                0.996188
x1.x9.x4.x2.x2.orout               0.000371869
x1.x9.x4.x2.x2.x3.node5               0.999005
x1.x9.x4.x2.x2.x3.node4               0.800934
x1.nodes3                          0.000664013
x1.x9.x4.x3.node5                     0.997891
x1.x9.x4.x3.outa                      0.996197
x1.nodec3                          0.000673597
x1.x10.node5                          0.999437
x1.x10.node4                          0.103514
x1.nodeaa0                         0.000661431
x1.x11.node5                          0.999437
x1.x11.node4                          0.103514
x1.nodeaa1                         0.000661431
x1.x12.node5                          0.999437
x1.x12.node4                          0.103514
x1.nodeaa2                         0.000661431
x1.x13.node5                          0.999437
x1.x13.node4                          0.103514
x1.nodeaa3                         0.000661431
x1.x14.x1.x1.x1.node5                 0.999438
x1.x14.x1.x1.x1.node4                 0.103649
x1.x14.x1.h1_carry                 0.000377336
x1.x14.x1.x1.x2.nandout               0.999722
x1.x14.x1.x1.x2.x1.node4              0.103681
x1.x14.x1.x1.x2.x2.node5              0.997887
x1.x14.x1.x1.x2.x2.outa               0.996188
x1.x14.x1.x1.x2.orout              0.000371869
x1.x14.x1.x1.x2.x3.node5              0.999005
x1.x14.x1.x1.x2.x3.node4              0.800934
x1.x14.x1.h1_sum                   0.000664014
x1.x14.x1.x2.x1.node5                 0.999437
x1.x14.x1.x2.x1.node4                 0.103201
x1.x14.x1.h2_carry                 0.000376198
x1.x14.x1.x2.x2.nandout               0.999722
x1.x14.x1.x2.x2.x1.node4              0.103993
x1.x14.x1.x2.x2.x2.node5              0.997891
x1.x14.x1.x2.x2.x2.outa               0.996197
x1.x14.x1.x2.x2.orout              0.000371837
x1.x14.x1.x2.x2.x3.node5              0.999004
x1.x14.x1.x2.x2.x3.node4              0.800934
p2                                 0.000219133
x1.x14.x1.x3.node5                    0.997891
x1.x14.x1.x3.outa                     0.996197
x1.x14.nodec0                      0.000672428
x1.x14.x2.x1.x1.node5                 0.999438
x1.x14.x2.x1.x1.node4                 0.103649
x1.x14.x2.h1_carry                 0.000377336
x1.x14.x2.x1.x2.nandout               0.999722
x1.x14.x2.x1.x2.x1.node4              0.103681
x1.x14.x2.x1.x2.x2.node5              0.997887
x1.x14.x2.x1.x2.x2.outa               0.996188
x1.x14.x2.x1.x2.orout              0.000371869
x1.x14.x2.x1.x2.x3.node5              0.999005
x1.x14.x2.x1.x2.x3.node4              0.800934
x1.x14.x2.h1_sum                   0.000664013
x1.x14.x2.x2.x1.node5                 0.999438
x1.x14.x2.x2.x1.node4                 0.103657
x1.x14.x2.h2_carry                 0.000376197
x1.x14.x2.x2.x2.nandout               0.999722
x1.x14.x2.x2.x2.x1.node4              0.103676
x1.x14.x2.x2.x2.x2.node5              0.997887
x1.x14.x2.x2.x2.x2.outa               0.996188
x1.x14.x2.x2.x2.orout              0.000371869
x1.x14.x2.x2.x2.x3.node5              0.999005
x1.x14.x2.x2.x2.x3.node4              0.800934
x1.nodess1                         0.000664013
x1.x14.x2.x3.node5                    0.997891
x1.x14.x2.x3.outa                     0.996197
x1.x14.nodec1                      0.000672428
x1.x14.x3.x1.x1.node5                 0.999438
x1.x14.x3.x1.x1.node4                 0.103649
x1.x14.x3.h1_carry                 0.000377336
x1.x14.x3.x1.x2.nandout               0.999722
x1.x14.x3.x1.x2.x1.node4              0.103681
x1.x14.x3.x1.x2.x2.node5              0.997887
x1.x14.x3.x1.x2.x2.outa               0.996188
x1.x14.x3.x1.x2.orout              0.000371869
x1.x14.x3.x1.x2.x3.node5              0.999005
x1.x14.x3.x1.x2.x3.node4              0.800934
x1.x14.x3.h1_sum                   0.000664013
x1.x14.x3.x2.x1.node5                 0.999438
x1.x14.x3.x2.x1.node4                 0.103657
x1.x14.x3.h2_carry                 0.000376197
x1.x14.x3.x2.x2.nandout               0.999722
x1.x14.x3.x2.x2.x1.node4              0.103676
x1.x14.x3.x2.x2.x2.node5              0.997887
x1.x14.x3.x2.x2.x2.outa               0.996188
x1.x14.x3.x2.x2.orout              0.000371869
x1.x14.x3.x2.x2.x3.node5              0.999005
x1.x14.x3.x2.x2.x3.node4              0.800934
x1.nodess2                         0.000664013
x1.x14.x3.x3.node5                    0.997891
x1.x14.x3.x3.outa                     0.996197
x1.x14.nodec2                      0.000672428
x1.x14.x4.x1.x1.node5                 0.999438
x1.x14.x4.x1.x1.node4                 0.103645
x1.x14.x4.h1_carry                 0.000377336
x1.x14.x4.x1.x2.nandout               0.999722
x1.x14.x4.x1.x2.x1.node4              0.103688
x1.x14.x4.x1.x2.x2.node5              0.997887
x1.x14.x4.x1.x2.x2.outa               0.996188
x1.x14.x4.x1.x2.orout              0.000371869
x1.x14.x4.x1.x2.x3.node5              0.999005
x1.x14.x4.x1.x2.x3.node4              0.800934
x1.x14.x4.h1_sum                   0.000664013
x1.x14.x4.x2.x1.node5                 0.999438
x1.x14.x4.x2.x1.node4                 0.103657
x1.x14.x4.h2_carry                 0.000376197
x1.x14.x4.x2.x2.nandout               0.999722
x1.x14.x4.x2.x2.x1.node4              0.103676
x1.x14.x4.x2.x2.x2.node5              0.997887
x1.x14.x4.x2.x2.x2.outa               0.996188
x1.x14.x4.x2.x2.orout              0.000371869
x1.x14.x4.x2.x2.x3.node5              0.999005
x1.x14.x4.x2.x2.x3.node4              0.800934
x1.nodess3                         0.000664013
x1.x14.x4.x3.node5                    0.997891
x1.x14.x4.x3.outa                     0.996197
x1.nodecc3                         0.000673597
x1.x15.node5                          0.999437
x1.x15.node4                          0.103514
x1.nodeaaa0                        0.000661431
x1.x16.node5                          0.999437
x1.x16.node4                          0.103514
x1.nodeaaa1                        0.000661431
x1.x17.node5                          0.999437
x1.x17.node4                          0.103514
x1.nodeaaa2                        0.000661431
x1.x18.node5                          0.999437
x1.x18.node4                          0.103514
x1.nodeaaa3                        0.000661431
x1.x19.x1.x1.x1.node5                 0.999438
x1.x19.x1.x1.x1.node4                 0.103649
x1.x19.x1.h1_carry                 0.000377336
x1.x19.x1.x1.x2.nandout               0.999722
x1.x19.x1.x1.x2.x1.node4              0.103681
x1.x19.x1.x1.x2.x2.node5              0.997887
x1.x19.x1.x1.x2.x2.outa               0.996188
x1.x19.x1.x1.x2.orout              0.000371869
x1.x19.x1.x1.x2.x3.node5              0.999005
x1.x19.x1.x1.x2.x3.node4              0.800934
x1.x19.x1.h1_sum                   0.000664014
x1.x19.x1.x2.x1.node5                 0.999437
x1.x19.x1.x2.x1.node4                 0.103201
x1.x19.x1.h2_carry                 0.000376198
x1.x19.x1.x2.x2.nandout               0.999722
x1.x19.x1.x2.x2.x1.node4              0.103993
x1.x19.x1.x2.x2.x2.node5              0.997891
x1.x19.x1.x2.x2.x2.outa               0.996197
x1.x19.x1.x2.x2.orout              0.000371837
x1.x19.x1.x2.x2.x3.node5              0.999004
x1.x19.x1.x2.x2.x3.node4              0.800934
p3                                 0.000219133
x1.x19.x1.x3.node5                    0.997891
x1.x19.x1.x3.outa                     0.996197
x1.x19.nodec0                      0.000672428
x1.x19.x2.x1.x1.node5                 0.999438
x1.x19.x2.x1.x1.node4                 0.103649
x1.x19.x2.h1_carry                 0.000377336
x1.x19.x2.x1.x2.nandout               0.999722
x1.x19.x2.x1.x2.x1.node4              0.103681
x1.x19.x2.x1.x2.x2.node5              0.997887
x1.x19.x2.x1.x2.x2.outa               0.996188
x1.x19.x2.x1.x2.orout              0.000371869
x1.x19.x2.x1.x2.x3.node5              0.999005
x1.x19.x2.x1.x2.x3.node4              0.800934
x1.x19.x2.h1_sum                   0.000664013
x1.x19.x2.x2.x1.node5                 0.999438
x1.x19.x2.x2.x1.node4                 0.103657
x1.x19.x2.h2_carry                 0.000376197
x1.x19.x2.x2.x2.nandout               0.999722
x1.x19.x2.x2.x2.x1.node4              0.103676
x1.x19.x2.x2.x2.x2.node5              0.997887
x1.x19.x2.x2.x2.x2.outa               0.996188
x1.x19.x2.x2.x2.orout              0.000371869
x1.x19.x2.x2.x2.x3.node5              0.999004
x1.x19.x2.x2.x2.x3.node4              0.800934
p4                                 0.000219133
x1.x19.x2.x3.node5                    0.997891
x1.x19.x2.x3.outa                     0.996197
x1.x19.nodec1                      0.000672428
x1.x19.x3.x1.x1.node5                 0.999438
x1.x19.x3.x1.x1.node4                 0.103649
x1.x19.x3.h1_carry                 0.000377336
x1.x19.x3.x1.x2.nandout               0.999722
x1.x19.x3.x1.x2.x1.node4              0.103681
x1.x19.x3.x1.x2.x2.node5              0.997887
x1.x19.x3.x1.x2.x2.outa               0.996188
x1.x19.x3.x1.x2.orout              0.000371869
x1.x19.x3.x1.x2.x3.node5              0.999005
x1.x19.x3.x1.x2.x3.node4              0.800934
x1.x19.x3.h1_sum                   0.000664013
x1.x19.x3.x2.x1.node5                 0.999438
x1.x19.x3.x2.x1.node4                 0.103657
x1.x19.x3.h2_carry                 0.000376197
x1.x19.x3.x2.x2.nandout               0.999722
x1.x19.x3.x2.x2.x1.node4              0.103676
x1.x19.x3.x2.x2.x2.node5              0.997887
x1.x19.x3.x2.x2.x2.outa               0.996188
x1.x19.x3.x2.x2.orout              0.000371869
x1.x19.x3.x2.x2.x3.node5              0.999004
x1.x19.x3.x2.x2.x3.node4              0.800934
p5                                 0.000219133
x1.x19.x3.x3.node5                    0.997891
x1.x19.x3.x3.outa                     0.996197
x1.x19.nodec2                      0.000672428
x1.x19.x4.x1.x1.node5                 0.999438
x1.x19.x4.x1.x1.node4                 0.103645
x1.x19.x4.h1_carry                 0.000377336
x1.x19.x4.x1.x2.nandout               0.999722
x1.x19.x4.x1.x2.x1.node4              0.103688
x1.x19.x4.x1.x2.x2.node5              0.997887
x1.x19.x4.x1.x2.x2.outa               0.996188
x1.x19.x4.x1.x2.orout              0.000371869
x1.x19.x4.x1.x2.x3.node5              0.999005
x1.x19.x4.x1.x2.x3.node4              0.800934
x1.x19.x4.h1_sum                   0.000664013
x1.x19.x4.x2.x1.node5                 0.999438
x1.x19.x4.x2.x1.node4                 0.103657
x1.x19.x4.h2_carry                 0.000376197
x1.x19.x4.x2.x2.nandout               0.999722
x1.x19.x4.x2.x2.x1.node4              0.103676
x1.x19.x4.x2.x2.x2.node5              0.997887
x1.x19.x4.x2.x2.x2.outa               0.996188
x1.x19.x4.x2.x2.orout              0.000371869
x1.x19.x4.x2.x2.x3.node5              0.999004
x1.x19.x4.x2.x2.x3.node4              0.800934
p6                                 0.000219133
x1.x19.x4.x3.node5                    0.997891
x1.x19.x4.x3.outa                     0.996196
p7                                  0.00022851
vinnnnnnnn#branch                  1.24896e-07
vinnnnnnn#branch                    2.8981e-07
vinnnnnn#branch                     2.8981e-07
vinnnnn#branch                      2.8981e-07
vinnnn#branch                      3.24086e-07
vinnn#branch                       3.24086e-07
vinn#branch                        3.24086e-07
vin#branch                         3.24086e-07
vdd#branch                        -1.73002e-05

 Reference value :  0.00000e+00
 Reference value :  2.21259e-10
 Reference value :  8.14931e-09
 Reference value :  1.36571e-08
 Reference value :  2.02287e-08
 Reference value :  2.04935e-08
 Reference value :  3.05779e-08
 Reference value :  4.02200e-08
 Reference value :  4.04935e-08
 Reference value :  5.09292e-08
 Reference value :  6.02287e-08
 Reference value :  6.04935e-08
 Reference value :  7.09292e-08
 Reference value :  8.02287e-08
 Reference value :  8.05866e-08
 Reference value :  9.09292e-08
 Reference value :  1.00229e-07
 Reference value :  1.00587e-07
 Reference value :  1.10929e-07
No. of Data Rows : 327

  Measurements for Transient Analysis

trise               =  3.874965e-11 targ=  8.874965e-11 trig=  5.000000e-11
tfall               =  5.333380e-12 targ=  1.015533e-08 trig=  1.015000e-08
temp                =  2.20415e-11

Warning: Missing charsets in String to FontSet conversion
ngspice-37 done

Trying gmin =   1.0000E-03 Note: One successful gmin step
Trying gmin =   1.0000E-04 Note: One successful gmin step
Trying gmin =   1.0000E-05 Note: One successful gmin step
Trying gmin =   1.0000E-06 Warning: Further gmin increment
Trying gmin =   5.6234E-06 Warning: Further gmin increment
Trying gmin =   8.6596E-06 Note: One successful gmin step
Trying gmin =   6.9783E-06 Warning: Further gmin increment
Trying gmin =   8.2047E-06 Note: One successful gmin step
Trying gmin =   7.7737E-06 Note: One successful gmin step
Trying gmin =   7.1692E-06 Note: One successful gmin step
Trying gmin =   6.3494E-06 Note: One successful gmin step
Trying gmin =   5.2922E-06 Note: One successful gmin step
Trying gmin =   4.0270E-06 Note: One successful gmin step
Trying gmin =   2.6730E-06 Note: One successful gmin step
Trying gmin =   1.4456E-06 Note: One successful gmin step
Trying gmin =   5.7489E-07 Note: One successful gmin step
Trying gmin =   1.4418E-07 Note: One successful gmin step
Trying gmin =   1.8109E-08 Note: One successful gmin step
Trying gmin =   1.8109E-09 Note: One successful gmin step
Trying gmin =   1.8109E-10 Note: One successful gmin step
Trying gmin =   1.8109E-11 Note: One successful gmin step
Trying gmin =   1.8109E-12 Note: One successful gmin step
Trying gmin =   1.0000E-12 Note: One successful gmin step
Note: Dynamic gmin stepping completed


Note: No compatibility mode selected!


Circuit: ** title = "your mom"

Doing analysis at TEMP = 27.000000 and TNOM = 27.000000

Warning: toxe, toxp and dtox all given and toxe != toxp + dtox; dtox ignored.

Initial Transient Solution
--------------------------

Node                                   Voltage
----                                   -------
node1                                        1
a0                                           0
a1                                           0
a2                                           0
a3                                           0
b0                                           0
b1                                           0
b2                                           0
b3                                           0
x1.x1.node5                           0.999437
x1.x1.node4                           0.103514
p0                                 0.000217751
x1.x2.node5                           0.999437
x1.x2.node4                           0.103514
x1.x3.node5                           0.999437
x1.x3.node4                           0.103514
x1.x4.node5                           0.999437
x1.x4.node4                           0.103514
x1.x5.node5                           0.999437
x1.x5.node4                           0.103514
x1.x6.node5                           0.999437
x1.x6.node4                           0.103514
x1.x7.node5                           0.999437
x1.x7.node4                           0.103514
x1.x8.node5                           0.999437
x1.x8.node4                           0.103514
x1.x9.x1.x1.x1.node5                  0.999437
x1.x9.x1.x1.x1.node4                  0.103514
x1.x9.x1.h1_carry                  0.000377338
x1.x9.x1.x1.x2.nandout                0.999722
x1.x9.x1.x1.x2.x1.node4               0.103543
x1.x9.x1.x1.x2.x2.node5               0.997896
x1.x9.x1.x1.x2.x2.outa                0.996207
x1.x9.x1.x1.x2.orout               0.000371802
x1.x9.x1.x1.x2.x3.node5               0.999005
x1.x9.x1.x1.x2.x3.node4               0.800934
x1.x9.x1.h1_sum                    0.000664014
x1.x9.x1.x2.x1.node5                  0.999437
x1.x9.x1.x2.x1.node4                  0.103201
x1.x9.x1.h2_carry                  0.000376198
x1.x9.x1.x2.x2.nandout                0.999722
x1.x9.x1.x2.x2.x1.node4               0.103993
x1.x9.x1.x2.x2.x2.node5               0.997891
x1.x9.x1.x2.x2.x2.outa                0.996197
x1.x9.x1.x2.x2.orout               0.000371837
x1.x9.x1.x2.x2.x3.node5               0.999004
x1.x9.x1.x2.x2.x3.node4               0.800934
p1                                 0.000219133
x1.x9.x1.x3.node5                     0.997891
x1.x9.x1.x3.outa                      0.996197
x1.x9.nodec0                       0.000672428
x1.x9.x2.x1.x1.node5                  0.999437
x1.x9.x2.x1.x1.node4                  0.103514
x1.x9.x2.h1_carry                  0.000377338
x1.x9.x2.x1.x2.nandout                0.999722
x1.x9.x2.x1.x2.x1.node4               0.103543
x1.x9.x2.x1.x2.x2.node5               0.997896
x1.x9.x2.x1.x2.x2.outa                0.996207
x1.x9.x2.x1.x2.orout               0.000371802
x1.x9.x2.x1.x2.x3.node5               0.999005
x1.x9.x2.x1.x2.x3.node4               0.800934
x1.x9.x2.h1_sum                    0.000664013
x1.x9.x2.x2.x1.node5                  0.999438
x1.x9.x2.x2.x1.node4                  0.103657
x1.x9.x2.h2_carry                  0.000376197
x1.x9.x2.x2.x2.nandout                0.999722
x1.x9.x2.x2.x2.x1.node4               0.103676
x1.x9.x2.x2.x2.x2.node5               0.997887
x1.x9.x2.x2.x2.x2.outa                0.996188
x1.x9.x2.x2.x2.orout               0.000371869
x1.x9.x2.x2.x2.x3.node5               0.999005
x1.x9.x2.x2.x2.x3.node4               0.800934
x1.nodes1                          0.000664013
x1.x9.x2.x3.node5                     0.997891
x1.x9.x2.x3.outa                      0.996197
x1.x9.nodec1                       0.000672428
x1.x9.x3.x1.x1.node5                  0.999437
x1.x9.x3.x1.x1.node4                  0.103514
x1.x9.x3.h1_carry                  0.000377338
x1.x9.x3.x1.x2.nandout                0.999722
x1.x9.x3.x1.x2.x1.node4               0.103543
x1.x9.x3.x1.x2.x2.node5               0.997896
x1.x9.x3.x1.x2.x2.outa                0.996207
x1.x9.x3.x1.x2.orout               0.000371802
x1.x9.x3.x1.x2.x3.node5               0.999005
x1.x9.x3.x1.x2.x3.node4               0.800934
x1.x9.x3.h1_sum                    0.000664013
x1.x9.x3.x2.x1.node5                  0.999438
x1.x9.x3.x2.x1.node4                  0.103657
x1.x9.x3.h2_carry                  0.000376197
x1.x9.x3.x2.x2.nandout                0.999722
x1.x9.x3.x2.x2.x1.node4               0.103676
x1.x9.x3.x2.x2.x2.node5               0.997887
x1.x9.x3.x2.x2.x2.outa                0.996188
x1.x9.x3.x2.x2.orout               0.000371869
x1.x9.x3.x2.x2.x3.node5               0.999005
x1.x9.x3.x2.x2.x3.node4               0.800934
x1.nodes2                          0.000664013
x1.x9.x3.x3.node5                     0.997891
x1.x9.x3.x3.outa                      0.996197
x1.x9.nodec2                       0.000672428
x1.x9.x4.x1.x1.node5                  0.999437
x1.x9.x4.x1.x1.node4                  0.103514
x1.x9.x4.h1_carry                  0.000377338
x1.x9.x4.x1.x2.nandout                0.999722
x1.x9.x4.x1.x2.x1.node4               0.103543
x1.x9.x4.x1.x2.x2.node5               0.997896
x1.x9.x4.x1.x2.x2.outa                0.996207
x1.x9.x4.x1.x2.orout               0.000371802
x1.x9.x4.x1.x2.x3.node5               0.999005
x1.x9.x4.x1.x2.x3.node4               0.800934
x1.x9.x4.h1_sum                    0.000664013
x1.x9.x4.x2.x1.node5                  0.999438
x1.x9.x4.x2.x1.node4                  0.103657
x1.x9.x4.h2_carry                  0.000376197
x1.x9.x4.x2.x2.nandout                0.999722
x1.x9.x4.x2.x2.x1.node4               0.103676
x1.x9.x4.x2.x2.x2.node5               0.997887
x1.x9.x4.x2.x2.x2.outa                0.996188
x1.x9.x4.x2.x2.orout               0.000371869
x1.x9.x4.x2.x2.x3.node5               0.999005
x1.x9.x4.x2.x2.x3.node4               0.800934
x1.nodes3                          0.000664013
x1.x9.x4.x3.node5                     0.997891
x1.x9.x4.x3.outa                      0.996197
x1.nodec3                          0.000673597
x1.x10.node5                          0.999437
x1.x10.node4                          0.103514
x1.nodeaa0                         0.000661431
x1.x11.node5                          0.999437
x1.x11.node4                          0.103514
x1.nodeaa1                         0.000661431
x1.x12.node5                          0.999437
x1.x12.node4                          0.103514
x1.nodeaa2                         0.000661431
x1.x13.node5                          0.999437
x1.x13.node4                          0.103514
x1.nodeaa3                         0.000661431
x1.x14.x1.x1.x1.node5                 0.999438
x1.x14.x1.x1.x1.node4                 0.103649
x1.x14.x1.h1_carry                 0.000377336
x1.x14.x1.x1.x2.nandout               0.999722
x1.x14.x1.x1.x2.x1.node4              0.103681
x1.x14.x1.x1.x2.x2.node5              0.997887
x1.x14.x1.x1.x2.x2.outa               0.996188
x1.x14.x1.x1.x2.orout              0.000371869
x1.x14.x1.x1.x2.x3.node5              0.999005
x1.x14.x1.x1.x2.x3.node4              0.800934
x1.x14.x1.h1_sum                   0.000664014
x1.x14.x1.x2.x1.node5                 0.999437
x1.x14.x1.x2.x1.node4                 0.103201
x1.x14.x1.h2_carry                 0.000376198
x1.x14.x1.x2.x2.nandout               0.999722
x1.x14.x1.x2.x2.x1.node4              0.103993
x1.x14.x1.x2.x2.x2.node5              0.997891
x1.x14.x1.x2.x2.x2.outa               0.996197
x1.x14.x1.x2.x2.orout              0.000371837
x1.x14.x1.x2.x2.x3.node5              0.999004
x1.x14.x1.x2.x2.x3.node4              0.800934
p2                                 0.000219133
x1.x14.x1.x3.node5                    0.997891
x1.x14.x1.x3.outa                     0.996197
x1.x14.nodec0                      0.000672428
x1.x14.x2.x1.x1.node5                 0.999438
x1.x14.x2.x1.x1.node4                 0.103649
x1.x14.x2.h1_carry                 0.000377336
x1.x14.x2.x1.x2.nandout               0.999722
x1.x14.x2.x1.x2.x1.node4              0.103681
x1.x14.x2.x1.x2.x2.node5              0.997887
x1.x14.x2.x1.x2.x2.outa               0.996188
x1.x14.x2.x1.x2.orout              0.000371869
x1.x14.x2.x1.x2.x3.node5              0.999005
x1.x14.x2.x1.x2.x3.node4              0.800934
x1.x14.x2.h1_sum                   0.000664013
x1.x14.x2.x2.x1.node5                 0.999438
x1.x14.x2.x2.x1.node4                 0.103657
x1.x14.x2.h2_carry                 0.000376197
x1.x14.x2.x2.x2.nandout               0.999722
x1.x14.x2.x2.x2.x1.node4              0.103676
x1.x14.x2.x2.x2.x2.node5              0.997887
x1.x14.x2.x2.x2.x2.outa               0.996188
x1.x14.x2.x2.x2.orout              0.000371869
x1.x14.x2.x2.x2.x3.node5              0.999005
x1.x14.x2.x2.x2.x3.node4              0.800934
x1.nodess1                         0.000664013
x1.x14.x2.x3.node5                    0.997891
x1.x14.x2.x3.outa                     0.996197
x1.x14.nodec1                      0.000672428
x1.x14.x3.x1.x1.node5                 0.999438
x1.x14.x3.x1.x1.node4                 0.103649
x1.x14.x3.h1_carry                 0.000377336
x1.x14.x3.x1.x2.nandout               0.999722
x1.x14.x3.x1.x2.x1.node4              0.103681
x1.x14.x3.x1.x2.x2.node5              0.997887
x1.x14.x3.x1.x2.x2.outa               0.996188
x1.x14.x3.x1.x2.orout              0.000371869
x1.x14.x3.x1.x2.x3.node5              0.999005
x1.x14.x3.x1.x2.x3.node4              0.800934
x1.x14.x3.h1_sum                   0.000664013
x1.x14.x3.x2.x1.node5                 0.999438
x1.x14.x3.x2.x1.node4                 0.103657
x1.x14.x3.h2_carry                 0.000376197
x1.x14.x3.x2.x2.nandout               0.999722
x1.x14.x3.x2.x2.x1.node4              0.103676
x1.x14.x3.x2.x2.x2.node5              0.997887
x1.x14.x3.x2.x2.x2.outa               0.996188
x1.x14.x3.x2.x2.orout              0.000371869
x1.x14.x3.x2.x2.x3.node5              0.999005
x1.x14.x3.x2.x2.x3.node4              0.800934
x1.nodess2                         0.000664013
x1.x14.x3.x3.node5                    0.997891
x1.x14.x3.x3.outa                     0.996197
x1.x14.nodec2                      0.000672428
x1.x14.x4.x1.x1.node5                 0.999438
x1.x14.x4.x1.x1.node4                 0.103645
x1.x14.x4.h1_carry                 0.000377336
x1.x14.x4.x1.x2.nandout               0.999722
x1.x14.x4.x1.x2.x1.node4              0.103688
x1.x14.x4.x1.x2.x2.node5              0.997887
x1.x14.x4.x1.x2.x2.outa               0.996188
x1.x14.x4.x1.x2.orout              0.000371869
x1.x14.x4.x1.x2.x3.node5              0.999005
x1.x14.x4.x1.x2.x3.node4              0.800934
x1.x14.x4.h1_sum                   0.000664013
x1.x14.x4.x2.x1.node5                 0.999438
x1.x14.x4.x2.x1.node4                 0.103657
x1.x14.x4.h2_carry                 0.000376197
x1.x14.x4.x2.x2.nandout               0.999722
x1.x14.x4.x2.x2.x1.node4              0.103676
x1.x14.x4.x2.x2.x2.node5              0.997887
x1.x14.x4.x2.x2.x2.outa               0.996188
x1.x14.x4.x2.x2.orout              0.000371869
x1.x14.x4.x2.x2.x3.node5              0.999005
x1.x14.x4.x2.x2.x3.node4              0.800934
x1.nodess3                         0.000664013
x1.x14.x4.x3.node5                    0.997891
x1.x14.x4.x3.outa                     0.996197
x1.nodecc3                         0.000673597
x1.x15.node5                          0.999437
x1.x15.node4                          0.103514
x1.nodeaaa0                        0.000661431
x1.x16.node5                          0.999437
x1.x16.node4                          0.103514
x1.nodeaaa1                        0.000661431
x1.x17.node5                          0.999437
x1.x17.node4                          0.103514
x1.nodeaaa2                        0.000661431
x1.x18.node5                          0.999437
x1.x18.node4                          0.103514
x1.nodeaaa3                        0.000661431
x1.x19.x1.x1.x1.node5                 0.999438
x1.x19.x1.x1.x1.node4                 0.103649
x1.x19.x1.h1_carry                 0.000377336
x1.x19.x1.x1.x2.nandout               0.999722
x1.x19.x1.x1.x2.x1.node4              0.103681
x1.x19.x1.x1.x2.x2.node5              0.997887
x1.x19.x1.x1.x2.x2.outa               0.996188
x1.x19.x1.x1.x2.orout              0.000371869
x1.x19.x1.x1.x2.x3.node5              0.999005
x1.x19.x1.x1.x2.x3.node4              0.800934
x1.x19.x1.h1_sum                   0.000664014
x1.x19.x1.x2.x1.node5                 0.999437
x1.x19.x1.x2.x1.node4                 0.103201
x1.x19.x1.h2_carry                 0.000376198
x1.x19.x1.x2.x2.nandout               0.999722
x1.x19.x1.x2.x2.x1.node4              0.103993
x1.x19.x1.x2.x2.x2.node5              0.997891
x1.x19.x1.x2.x2.x2.outa               0.996197
x1.x19.x1.x2.x2.orout              0.000371837
x1.x19.x1.x2.x2.x3.node5              0.999004
x1.x19.x1.x2.x2.x3.node4              0.800934
p3                                 0.000219133
x1.x19.x1.x3.node5                    0.997891
x1.x19.x1.x3.outa                     0.996197
x1.x19.nodec0                      0.000672428
x1.x19.x2.x1.x1.node5                 0.999438
x1.x19.x2.x1.x1.node4                 0.103649
x1.x19.x2.h1_carry                 0.000377336
x1.x19.x2.x1.x2.nandout               0.999722
x1.x19.x2.x1.x2.x1.node4              0.103681
x1.x19.x2.x1.x2.x2.node5              0.997887
x1.x19.x2.x1.x2.x2.outa               0.996188
x1.x19.x2.x1.x2.orout              0.000371869
x1.x19.x2.x1.x2.x3.node5              0.999005
x1.x19.x2.x1.x2.x3.node4              0.800934
x1.x19.x2.h1_sum                   0.000664013
x1.x19.x2.x2.x1.node5                 0.999438
x1.x19.x2.x2.x1.node4                 0.103657
x1.x19.x2.h2_carry                 0.000376197
x1.x19.x2.x2.x2.nandout               0.999722
x1.x19.x2.x2.x2.x1.node4              0.103676
x1.x19.x2.x2.x2.x2.node5              0.997887
x1.x19.x2.x2.x2.x2.outa               0.996188
x1.x19.x2.x2.x2.orout              0.000371869
x1.x19.x2.x2.x2.x3.node5              0.999004
x1.x19.x2.x2.x2.x3.node4              0.800934
p4                                 0.000219133
x1.x19.x2.x3.node5                    0.997891
x1.x19.x2.x3.outa                     0.996197
x1.x19.nodec1                      0.000672428
x1.x19.x3.x1.x1.node5                 0.999438
x1.x19.x3.x1.x1.node4                 0.103649
x1.x19.x3.h1_carry                 0.000377336
x1.x19.x3.x1.x2.nandout               0.999722
x1.x19.x3.x1.x2.x1.node4              0.103681
x1.x19.x3.x1.x2.x2.node5              0.997887
x1.x19.x3.x1.x2.x2.outa               0.996188
x1.x19.x3.x1.x2.orout              0.000371869
x1.x19.x3.x1.x2.x3.node5              0.999005
x1.x19.x3.x1.x2.x3.node4              0.800934
x1.x19.x3.h1_sum                   0.000664013
x1.x19.x3.x2.x1.node5                 0.999438
x1.x19.x3.x2.x1.node4                 0.103657
x1.x19.x3.h2_carry                 0.000376197
x1.x19.x3.x2.x2.nandout               0.999722
x1.x19.x3.x2.x2.x1.node4              0.103676
x1.x19.x3.x2.x2.x2.node5              0.997887
x1.x19.x3.x2.x2.x2.outa               0.996188
x1.x19.x3.x2.x2.orout              0.000371869
x1.x19.x3.x2.x2.x3.node5              0.999004
x1.x19.x3.x2.x2.x3.node4              0.800934
p5                                 0.000219133
x1.x19.x3.x3.node5                    0.997891
x1.x19.x3.x3.outa                     0.996197
x1.x19.nodec2                      0.000672428
x1.x19.x4.x1.x1.node5                 0.999438
x1.x19.x4.x1.x1.node4                 0.103645
x1.x19.x4.h1_carry                 0.000377336
x1.x19.x4.x1.x2.nandout               0.999722
x1.x19.x4.x1.x2.x1.node4              0.103688
x1.x19.x4.x1.x2.x2.node5              0.997887
x1.x19.x4.x1.x2.x2.outa               0.996188
x1.x19.x4.x1.x2.orout              0.000371869
x1.x19.x4.x1.x2.x3.node5              0.999005
x1.x19.x4.x1.x2.x3.node4              0.800934
x1.x19.x4.h1_sum                   0.000664013
x1.x19.x4.x2.x1.node5                 0.999438
x1.x19.x4.x2.x1.node4                 0.103657
x1.x19.x4.h2_carry                 0.000376197
x1.x19.x4.x2.x2.nandout               0.999722
x1.x19.x4.x2.x2.x1.node4              0.103676
x1.x19.x4.x2.x2.x2.node5              0.997887
x1.x19.x4.x2.x2.x2.outa               0.996188
x1.x19.x4.x2.x2.orout              0.000371869
x1.x19.x4.x2.x2.x3.node5              0.999004
x1.x19.x4.x2.x2.x3.node4              0.800934
p6                                 0.000219133
x1.x19.x4.x3.node5                    0.997891
x1.x19.x4.x3.outa                     0.996196
p7                                  0.00022851
vinnnnnnnn#branch                  1.24896e-07
vinnnnnnn#branch                    2.8981e-07
vinnnnnn#branch                     2.8981e-07
vinnnnn#branch                      2.8981e-07
vinnnn#branch                      3.24086e-07
vinnn#branch                       3.24086e-07
vinn#branch                        3.24086e-07
vin#branch                         3.24086e-07
vdd#branch                        -1.73002e-05

 Reference value :  0.00000e+00
 Reference value :  3.35495e-10
 Reference value :  6.53087e-09
 Reference value :  1.06111e-08
 Reference value :  2.03262e-08
 Reference value :  2.07403e-08
 Reference value :  3.02067e-08
 Reference value :  3.06111e-08
 Reference value :  4.03262e-08
 Reference value :  4.07403e-08
 Reference value :  5.02067e-08
 Reference value :  5.06111e-08
 Reference value :  6.03262e-08
 Reference value :  6.07403e-08
 Reference value :  7.02202e-08
 Reference value :  7.06111e-08
 Reference value :  8.03262e-08
 Reference value :  8.07403e-08
 Reference value :  9.02202e-08
 Reference value :  9.06111e-08
 Reference value :  1.00326e-07
 Reference value :  1.00740e-07
 Reference value :  1.10220e-07
 Reference value :  1.10611e-07
No. of Data Rows : 449

  Measurements for Transient Analysis

trise               =  2.539908e-10 targ=  3.039908e-10 trig=  5.000000e-11
tfall               =  1.014166e-10 targ=  1.025142e-08 trig=  1.015000e-08
temp                =  1.77704e-10

Warning: Missing charsets in String to FontSet conversion
ngspice-37 done

Trying gmin =   1.0000E-03 Note: One successful gmin step
Trying gmin =   1.0000E-04 Note: One successful gmin step
Trying gmin =   1.0000E-05 Note: One successful gmin step
Trying gmin =   1.0000E-06 Warning: Further gmin increment
Trying gmin =   5.6234E-06 Warning: Further gmin increment
Trying gmin =   8.6596E-06 Note: One successful gmin step
Trying gmin =   6.9783E-06 Warning: Further gmin increment
Trying gmin =   8.2047E-06 Note: One successful gmin step
Trying gmin =   7.7737E-06 Note: One successful gmin step
Trying gmin =   7.1692E-06 Note: One successful gmin step
Trying gmin =   6.3494E-06 Note: One successful gmin step
Trying gmin =   5.2922E-06 Note: One successful gmin step
Trying gmin =   4.0270E-06 Note: One successful gmin step
Trying gmin =   2.6730E-06 Note: One successful gmin step
Trying gmin =   1.4456E-06 Note: One successful gmin step
Trying gmin =   5.7489E-07 Note: One successful gmin step
Trying gmin =   1.4418E-07 Note: One successful gmin step
Trying gmin =   1.8109E-08 Note: One successful gmin step
Trying gmin =   1.8109E-09 Note: One successful gmin step
Trying gmin =   1.8109E-10 Note: One successful gmin step
Trying gmin =   1.8109E-11 Note: One successful gmin step
Trying gmin =   1.8109E-12 Note: One successful gmin step
Trying gmin =   1.0000E-12 Note: One successful gmin step
Note: Dynamic gmin stepping completed


Note: No compatibility mode selected!


Circuit: ** title = "your mom"

Doing analysis at TEMP = 27.000000 and TNOM = 27.000000

Warning: toxe, toxp and dtox all given and toxe != toxp + dtox; dtox ignored.

Initial Transient Solution
--------------------------

Node                                   Voltage
----                                   -------
node1                                        1
a0                                           0
a1                                           0
a2                                           0
a3                                           0
b0                                           0
b1                                           0
b2                                           0
b3                                           0
x1.x1.node5                           0.999437
x1.x1.node4                           0.103514
p0                                 0.000217751
x1.x2.node5                           0.999437
x1.x2.node4                           0.103514
x1.x3.node5                           0.999437
x1.x3.node4                           0.103514
x1.x4.node5                           0.999437
x1.x4.node4                           0.103514
x1.x5.node5                           0.999437
x1.x5.node4                           0.103514
x1.x6.node5                           0.999437
x1.x6.node4                           0.103514
x1.x7.node5                           0.999437
x1.x7.node4                           0.103514
x1.x8.node5                           0.999437
x1.x8.node4                           0.103514
x1.x9.x1.x1.x1.node5                  0.999437
x1.x9.x1.x1.x1.node4                  0.103514
x1.x9.x1.h1_carry                  0.000377338
x1.x9.x1.x1.x2.nandout                0.999722
x1.x9.x1.x1.x2.x1.node4               0.103543
x1.x9.x1.x1.x2.x2.node5               0.997896
x1.x9.x1.x1.x2.x2.outa                0.996207
x1.x9.x1.x1.x2.orout               0.000371802
x1.x9.x1.x1.x2.x3.node5               0.999005
x1.x9.x1.x1.x2.x3.node4               0.800934
x1.x9.x1.h1_sum                    0.000664014
x1.x9.x1.x2.x1.node5                  0.999437
x1.x9.x1.x2.x1.node4                  0.103201
x1.x9.x1.h2_carry                  0.000376198
x1.x9.x1.x2.x2.nandout                0.999722
x1.x9.x1.x2.x2.x1.node4               0.103993
x1.x9.x1.x2.x2.x2.node5               0.997891
x1.x9.x1.x2.x2.x2.outa                0.996197
x1.x9.x1.x2.x2.orout               0.000371837
x1.x9.x1.x2.x2.x3.node5               0.999004
x1.x9.x1.x2.x2.x3.node4               0.800934
p1                                 0.000219133
x1.x9.x1.x3.node5                     0.997891
x1.x9.x1.x3.outa                      0.996197
x1.x9.nodec0                       0.000672428
x1.x9.x2.x1.x1.node5                  0.999437
x1.x9.x2.x1.x1.node4                  0.103514
x1.x9.x2.h1_carry                  0.000377338
x1.x9.x2.x1.x2.nandout                0.999722
x1.x9.x2.x1.x2.x1.node4               0.103543
x1.x9.x2.x1.x2.x2.node5               0.997896
x1.x9.x2.x1.x2.x2.outa                0.996207
x1.x9.x2.x1.x2.orout               0.000371802
x1.x9.x2.x1.x2.x3.node5               0.999005
x1.x9.x2.x1.x2.x3.node4               0.800934
x1.x9.x2.h1_sum                    0.000664013
x1.x9.x2.x2.x1.node5                  0.999438
x1.x9.x2.x2.x1.node4                  0.103657
x1.x9.x2.h2_carry                  0.000376197
x1.x9.x2.x2.x2.nandout                0.999722
x1.x9.x2.x2.x2.x1.node4               0.103676
x1.x9.x2.x2.x2.x2.node5               0.997887
x1.x9.x2.x2.x2.x2.outa                0.996188
x1.x9.x2.x2.x2.orout               0.000371869
x1.x9.x2.x2.x2.x3.node5               0.999005
x1.x9.x2.x2.x2.x3.node4               0.800934
x1.nodes1                          0.000664013
x1.x9.x2.x3.node5                     0.997891
x1.x9.x2.x3.outa                      0.996197
x1.x9.nodec1                       0.000672428
x1.x9.x3.x1.x1.node5                  0.999437
x1.x9.x3.x1.x1.node4                  0.103514
x1.x9.x3.h1_carry                  0.000377338
x1.x9.x3.x1.x2.nandout                0.999722
x1.x9.x3.x1.x2.x1.node4               0.103543
x1.x9.x3.x1.x2.x2.node5               0.997896
x1.x9.x3.x1.x2.x2.outa                0.996207
x1.x9.x3.x1.x2.orout               0.000371802
x1.x9.x3.x1.x2.x3.node5               0.999005
x1.x9.x3.x1.x2.x3.node4               0.800934
x1.x9.x3.h1_sum                    0.000664013
x1.x9.x3.x2.x1.node5                  0.999438
x1.x9.x3.x2.x1.node4                  0.103657
x1.x9.x3.h2_carry                  0.000376197
x1.x9.x3.x2.x2.nandout                0.999722
x1.x9.x3.x2.x2.x1.node4               0.103676
x1.x9.x3.x2.x2.x2.node5               0.997887
x1.x9.x3.x2.x2.x2.outa                0.996188
x1.x9.x3.x2.x2.orout               0.000371869
x1.x9.x3.x2.x2.x3.node5               0.999005
x1.x9.x3.x2.x2.x3.node4               0.800934
x1.nodes2                          0.000664013
x1.x9.x3.x3.node5                     0.997891
x1.x9.x3.x3.outa                      0.996197
x1.x9.nodec2                       0.000672428
x1.x9.x4.x1.x1.node5                  0.999437
x1.x9.x4.x1.x1.node4                  0.103514
x1.x9.x4.h1_carry                  0.000377338
x1.x9.x4.x1.x2.nandout                0.999722
x1.x9.x4.x1.x2.x1.node4               0.103543
x1.x9.x4.x1.x2.x2.node5               0.997896
x1.x9.x4.x1.x2.x2.outa                0.996207
x1.x9.x4.x1.x2.orout               0.000371802
x1.x9.x4.x1.x2.x3.node5               0.999005
x1.x9.x4.x1.x2.x3.node4               0.800934
x1.x9.x4.h1_sum                    0.000664013
x1.x9.x4.x2.x1.node5                  0.999438
x1.x9.x4.x2.x1.node4                  0.103657
x1.x9.x4.h2_carry                  0.000376197
x1.x9.x4.x2.x2.nandout                0.999722
x1.x9.x4.x2.x2.x1.node4               0.103676
x1.x9.x4.x2.x2.x2.node5               0.997887
x1.x9.x4.x2.x2.x2.outa                0.996188
x1.x9.x4.x2.x2.orout               0.000371869
x1.x9.x4.x2.x2.x3.node5               0.999005
x1.x9.x4.x2.x2.x3.node4               0.800934
x1.nodes3                          0.000664013
x1.x9.x4.x3.node5                     0.997891
x1.x9.x4.x3.outa                      0.996197
x1.nodec3                          0.000673597
x1.x10.node5                          0.999437
x1.x10.node4                          0.103514
x1.nodeaa0                         0.000661431
x1.x11.node5                          0.999437
x1.x11.node4                          0.103514
x1.nodeaa1                         0.000661431
x1.x12.node5                          0.999437
x1.x12.node4                          0.103514
x1.nodeaa2                         0.000661431
x1.x13.node5                          0.999437
x1.x13.node4                          0.103514
x1.nodeaa3                         0.000661431
x1.x14.x1.x1.x1.node5                 0.999438
x1.x14.x1.x1.x1.node4                 0.103649
x1.x14.x1.h1_carry                 0.000377336
x1.x14.x1.x1.x2.nandout               0.999722
x1.x14.x1.x1.x2.x1.node4              0.103681
x1.x14.x1.x1.x2.x2.node5              0.997887
x1.x14.x1.x1.x2.x2.outa               0.996188
x1.x14.x1.x1.x2.orout              0.000371869
x1.x14.x1.x1.x2.x3.node5              0.999005
x1.x14.x1.x1.x2.x3.node4              0.800934
x1.x14.x1.h1_sum                   0.000664014
x1.x14.x1.x2.x1.node5                 0.999437
x1.x14.x1.x2.x1.node4                 0.103201
x1.x14.x1.h2_carry                 0.000376198
x1.x14.x1.x2.x2.nandout               0.999722
x1.x14.x1.x2.x2.x1.node4              0.103993
x1.x14.x1.x2.x2.x2.node5              0.997891
x1.x14.x1.x2.x2.x2.outa               0.996197
x1.x14.x1.x2.x2.orout              0.000371837
x1.x14.x1.x2.x2.x3.node5              0.999004
x1.x14.x1.x2.x2.x3.node4              0.800934
p2                                 0.000219133
x1.x14.x1.x3.node5                    0.997891
x1.x14.x1.x3.outa                     0.996197
x1.x14.nodec0                      0.000672428
x1.x14.x2.x1.x1.node5                 0.999438
x1.x14.x2.x1.x1.node4                 0.103649
x1.x14.x2.h1_carry                 0.000377336
x1.x14.x2.x1.x2.nandout               0.999722
x1.x14.x2.x1.x2.x1.node4              0.103681
x1.x14.x2.x1.x2.x2.node5              0.997887
x1.x14.x2.x1.x2.x2.outa               0.996188
x1.x14.x2.x1.x2.orout              0.000371869
x1.x14.x2.x1.x2.x3.node5              0.999005
x1.x14.x2.x1.x2.x3.node4              0.800934
x1.x14.x2.h1_sum                   0.000664013
x1.x14.x2.x2.x1.node5                 0.999438
x1.x14.x2.x2.x1.node4                 0.103657
x1.x14.x2.h2_carry                 0.000376197
x1.x14.x2.x2.x2.nandout               0.999722
x1.x14.x2.x2.x2.x1.node4              0.103676
x1.x14.x2.x2.x2.x2.node5              0.997887
x1.x14.x2.x2.x2.x2.outa               0.996188
x1.x14.x2.x2.x2.orout              0.000371869
x1.x14.x2.x2.x2.x3.node5              0.999005
x1.x14.x2.x2.x2.x3.node4              0.800934
x1.nodess1                         0.000664013
x1.x14.x2.x3.node5                    0.997891
x1.x14.x2.x3.outa                     0.996197
x1.x14.nodec1                      0.000672428
x1.x14.x3.x1.x1.node5                 0.999438
x1.x14.x3.x1.x1.node4                 0.103649
x1.x14.x3.h1_carry                 0.000377336
x1.x14.x3.x1.x2.nandout               0.999722
x1.x14.x3.x1.x2.x1.node4              0.103681
x1.x14.x3.x1.x2.x2.node5              0.997887
x1.x14.x3.x1.x2.x2.outa               0.996188
x1.x14.x3.x1.x2.orout              0.000371869
x1.x14.x3.x1.x2.x3.node5              0.999005
x1.x14.x3.x1.x2.x3.node4              0.800934
x1.x14.x3.h1_sum                   0.000664013
x1.x14.x3.x2.x1.node5                 0.999438
x1.x14.x3.x2.x1.node4                 0.103657
x1.x14.x3.h2_carry                 0.000376197
x1.x14.x3.x2.x2.nandout               0.999722
x1.x14.x3.x2.x2.x1.node4              0.103676
x1.x14.x3.x2.x2.x2.node5              0.997887
x1.x14.x3.x2.x2.x2.outa               0.996188
x1.x14.x3.x2.x2.orout              0.000371869
x1.x14.x3.x2.x2.x3.node5              0.999005
x1.x14.x3.x2.x2.x3.node4              0.800934
x1.nodess2                         0.000664013
x1.x14.x3.x3.node5                    0.997891
x1.x14.x3.x3.outa                     0.996197
x1.x14.nodec2                      0.000672428
x1.x14.x4.x1.x1.node5                 0.999438
x1.x14.x4.x1.x1.node4                 0.103645
x1.x14.x4.h1_carry                 0.000377336
x1.x14.x4.x1.x2.nandout               0.999722
x1.x14.x4.x1.x2.x1.node4              0.103688
x1.x14.x4.x1.x2.x2.node5              0.997887
x1.x14.x4.x1.x2.x2.outa               0.996188
x1.x14.x4.x1.x2.orout              0.000371869
x1.x14.x4.x1.x2.x3.node5              0.999005
x1.x14.x4.x1.x2.x3.node4              0.800934
x1.x14.x4.h1_sum                   0.000664013
x1.x14.x4.x2.x1.node5                 0.999438
x1.x14.x4.x2.x1.node4                 0.103657
x1.x14.x4.h2_carry                 0.000376197
x1.x14.x4.x2.x2.nandout               0.999722
x1.x14.x4.x2.x2.x1.node4              0.103676
x1.x14.x4.x2.x2.x2.node5              0.997887
x1.x14.x4.x2.x2.x2.outa               0.996188
x1.x14.x4.x2.x2.orout              0.000371869
x1.x14.x4.x2.x2.x3.node5              0.999005
x1.x14.x4.x2.x2.x3.node4              0.800934
x1.nodess3                         0.000664013
x1.x14.x4.x3.node5                    0.997891
x1.x14.x4.x3.outa                     0.996197
x1.nodecc3                         0.000673597
x1.x15.node5                          0.999437
x1.x15.node4                          0.103514
x1.nodeaaa0                        0.000661431
x1.x16.node5                          0.999437
x1.x16.node4                          0.103514
x1.nodeaaa1                        0.000661431
x1.x17.node5                          0.999437
x1.x17.node4                          0.103514
x1.nodeaaa2                        0.000661431
x1.x18.node5                          0.999437
x1.x18.node4                          0.103514
x1.nodeaaa3                        0.000661431
x1.x19.x1.x1.x1.node5                 0.999438
x1.x19.x1.x1.x1.node4                 0.103649
x1.x19.x1.h1_carry                 0.000377336
x1.x19.x1.x1.x2.nandout               0.999722
x1.x19.x1.x1.x2.x1.node4              0.103681
x1.x19.x1.x1.x2.x2.node5              0.997887
x1.x19.x1.x1.x2.x2.outa               0.996188
x1.x19.x1.x1.x2.orout              0.000371869
x1.x19.x1.x1.x2.x3.node5              0.999005
x1.x19.x1.x1.x2.x3.node4              0.800934
x1.x19.x1.h1_sum                   0.000664014
x1.x19.x1.x2.x1.node5                 0.999437
x1.x19.x1.x2.x1.node4                 0.103201
x1.x19.x1.h2_carry                 0.000376198
x1.x19.x1.x2.x2.nandout               0.999722
x1.x19.x1.x2.x2.x1.node4              0.103993
x1.x19.x1.x2.x2.x2.node5              0.997891
x1.x19.x1.x2.x2.x2.outa               0.996197
x1.x19.x1.x2.x2.orout              0.000371837
x1.x19.x1.x2.x2.x3.node5              0.999004
x1.x19.x1.x2.x2.x3.node4              0.800934
p3                                 0.000219133
x1.x19.x1.x3.node5                    0.997891
x1.x19.x1.x3.outa                     0.996197
x1.x19.nodec0                      0.000672428
x1.x19.x2.x1.x1.node5                 0.999438
x1.x19.x2.x1.x1.node4                 0.103649
x1.x19.x2.h1_carry                 0.000377336
x1.x19.x2.x1.x2.nandout               0.999722
x1.x19.x2.x1.x2.x1.node4              0.103681
x1.x19.x2.x1.x2.x2.node5              0.997887
x1.x19.x2.x1.x2.x2.outa               0.996188
x1.x19.x2.x1.x2.orout              0.000371869
x1.x19.x2.x1.x2.x3.node5              0.999005
x1.x19.x2.x1.x2.x3.node4              0.800934
x1.x19.x2.h1_sum                   0.000664013
x1.x19.x2.x2.x1.node5                 0.999438
x1.x19.x2.x2.x1.node4                 0.103657
x1.x19.x2.h2_carry                 0.000376197
x1.x19.x2.x2.x2.nandout               0.999722
x1.x19.x2.x2.x2.x1.node4              0.103676
x1.x19.x2.x2.x2.x2.node5              0.997887
x1.x19.x2.x2.x2.x2.outa               0.996188
x1.x19.x2.x2.x2.orout              0.000371869
x1.x19.x2.x2.x2.x3.node5              0.999004
x1.x19.x2.x2.x2.x3.node4              0.800934
p4                                 0.000219133
x1.x19.x2.x3.node5                    0.997891
x1.x19.x2.x3.outa                     0.996197
x1.x19.nodec1                      0.000672428
x1.x19.x3.x1.x1.node5                 0.999438
x1.x19.x3.x1.x1.node4                 0.103649
x1.x19.x3.h1_carry                 0.000377336
x1.x19.x3.x1.x2.nandout               0.999722
x1.x19.x3.x1.x2.x1.node4              0.103681
x1.x19.x3.x1.x2.x2.node5              0.997887
x1.x19.x3.x1.x2.x2.outa               0.996188
x1.x19.x3.x1.x2.orout              0.000371869
x1.x19.x3.x1.x2.x3.node5              0.999005
x1.x19.x3.x1.x2.x3.node4              0.800934
x1.x19.x3.h1_sum                   0.000664013
x1.x19.x3.x2.x1.node5                 0.999438
x1.x19.x3.x2.x1.node4                 0.103657
x1.x19.x3.h2_carry                 0.000376197
x1.x19.x3.x2.x2.nandout               0.999722
x1.x19.x3.x2.x2.x1.node4              0.103676
x1.x19.x3.x2.x2.x2.node5              0.997887
x1.x19.x3.x2.x2.x2.outa               0.996188
x1.x19.x3.x2.x2.orout              0.000371869
x1.x19.x3.x2.x2.x3.node5              0.999004
x1.x19.x3.x2.x2.x3.node4              0.800934
p5                                 0.000219133
x1.x19.x3.x3.node5                    0.997891
x1.x19.x3.x3.outa                     0.996197
x1.x19.nodec2                      0.000672428
x1.x19.x4.x1.x1.node5                 0.999438
x1.x19.x4.x1.x1.node4                 0.103645
x1.x19.x4.h1_carry                 0.000377336
x1.x19.x4.x1.x2.nandout               0.999722
x1.x19.x4.x1.x2.x1.node4              0.103688
x1.x19.x4.x1.x2.x2.node5              0.997887
x1.x19.x4.x1.x2.x2.outa               0.996188
x1.x19.x4.x1.x2.orout              0.000371869
x1.x19.x4.x1.x2.x3.node5              0.999005
x1.x19.x4.x1.x2.x3.node4              0.800934
x1.x19.x4.h1_sum                   0.000664013
x1.x19.x4.x2.x1.node5                 0.999438
x1.x19.x4.x2.x1.node4                 0.103657
x1.x19.x4.h2_carry                 0.000376197
x1.x19.x4.x2.x2.nandout               0.999722
x1.x19.x4.x2.x2.x1.node4              0.103676
x1.x19.x4.x2.x2.x2.node5              0.997887
x1.x19.x4.x2.x2.x2.outa               0.996188
x1.x19.x4.x2.x2.orout              0.000371869
x1.x19.x4.x2.x2.x3.node5              0.999004
x1.x19.x4.x2.x2.x3.node4              0.800934
p6                                 0.000219133
x1.x19.x4.x3.node5                    0.997891
x1.x19.x4.x3.outa                     0.996196
p7                                  0.00022851
vinnnnnnnn#branch                  1.24896e-07
vinnnnnnn#branch                    2.8981e-07
vinnnnnn#branch                     2.8981e-07
vinnnnn#branch                      2.8981e-07
vinnnn#branch                      3.24086e-07
vinnn#branch                       3.24086e-07
vinn#branch                        3.24086e-07
vin#branch                         3.24086e-07
vdd#branch                        -1.73002e-05

 Reference value :  0.00000e+00
 Reference value :  3.35495e-10
 Reference value :  6.53087e-09
 Reference value :  1.06111e-08
 Reference value :  2.03262e-08
 Reference value :  2.07403e-08
 Reference value :  3.02067e-08
 Reference value :  3.06111e-08
 Reference value :  4.03262e-08
 Reference value :  4.06075e-08
 Reference value :  4.95353e-08
 Reference value :  5.06111e-08
 Reference value :  6.03262e-08
 Reference value :  6.07403e-08
 Reference value :  7.02067e-08
 Reference value :  7.06111e-08
 Reference value :  8.03262e-08
 Reference value :  8.07403e-08
 Reference value :  9.02067e-08
 Reference value :  9.06111e-08
 Reference value :  1.00326e-07
 Reference value :  1.00740e-07
 Reference value :  1.10207e-07
 Reference value :  1.10611e-07
No. of Data Rows : 449

  Measurements for Transient Analysis

trise               =  1.701869e-10 targ=  2.201869e-10 trig=  5.000000e-11
tfall               =  -9.834953e-09 targ=  3.150467e-10 trig=  1.015000e-08
temp                =  -4.83238e-09

Warning: Missing charsets in String to FontSet conversion
ngspice-37 done

Trying gmin =   1.0000E-03 Note: One successful gmin step
Trying gmin =   1.0000E-04 Note: One successful gmin step
Trying gmin =   1.0000E-05 Note: One successful gmin step
Trying gmin =   1.0000E-06 Warning: Further gmin increment
Trying gmin =   5.6234E-06 Warning: Further gmin increment
Trying gmin =   8.6596E-06 Note: One successful gmin step
Trying gmin =   6.9783E-06 Warning: Further gmin increment
Trying gmin =   8.2047E-06 Note: One successful gmin step
Trying gmin =   7.7737E-06 Note: One successful gmin step
Trying gmin =   7.1692E-06 Note: One successful gmin step
Trying gmin =   6.3494E-06 Note: One successful gmin step
Trying gmin =   5.2922E-06 Note: One successful gmin step
Trying gmin =   4.0270E-06 Note: One successful gmin step
Trying gmin =   2.6730E-06 Note: One successful gmin step
Trying gmin =   1.4456E-06 Note: One successful gmin step
Trying gmin =   5.7489E-07 Note: One successful gmin step
Trying gmin =   1.4418E-07 Note: One successful gmin step
Trying gmin =   1.8109E-08 Note: One successful gmin step
Trying gmin =   1.8109E-09 Note: One successful gmin step
Trying gmin =   1.8109E-10 Note: One successful gmin step
Trying gmin =   1.8109E-11 Note: One successful gmin step
Trying gmin =   1.8109E-12 Note: One successful gmin step
Trying gmin =   1.0000E-12 Note: One successful gmin step
Note: Dynamic gmin stepping completed


Note: No compatibility mode selected!


Circuit: ** title = "your mom"

Doing analysis at TEMP = 27.000000 and TNOM = 27.000000

Warning: toxe, toxp and dtox all given and toxe != toxp + dtox; dtox ignored.

Initial Transient Solution
--------------------------

Node                                   Voltage
----                                   -------
node1                                        1
a0                                           0
a1                                           0
a2                                           0
a3                                           0
b0                                           0
b1                                           0
b2                                           0
b3                                           0
x1.x1.node5                           0.999437
x1.x1.node4                           0.103514
p0                                 0.000217751
x1.x2.node5                           0.999437
x1.x2.node4                           0.103514
x1.x3.node5                           0.999437
x1.x3.node4                           0.103514
x1.x4.node5                           0.999437
x1.x4.node4                           0.103514
x1.x5.node5                           0.999437
x1.x5.node4                           0.103514
x1.x6.node5                           0.999437
x1.x6.node4                           0.103514
x1.x7.node5                           0.999437
x1.x7.node4                           0.103514
x1.x8.node5                           0.999437
x1.x8.node4                           0.103514
x1.x9.x1.x1.x1.node5                  0.999437
x1.x9.x1.x1.x1.node4                  0.103514
x1.x9.x1.h1_carry                  0.000377338
x1.x9.x1.x1.x2.nandout                0.999722
x1.x9.x1.x1.x2.x1.node4               0.103543
x1.x9.x1.x1.x2.x2.node5               0.997896
x1.x9.x1.x1.x2.x2.outa                0.996207
x1.x9.x1.x1.x2.orout               0.000371802
x1.x9.x1.x1.x2.x3.node5               0.999005
x1.x9.x1.x1.x2.x3.node4               0.800934
x1.x9.x1.h1_sum                    0.000664014
x1.x9.x1.x2.x1.node5                  0.999437
x1.x9.x1.x2.x1.node4                  0.103201
x1.x9.x1.h2_carry                  0.000376198
x1.x9.x1.x2.x2.nandout                0.999722
x1.x9.x1.x2.x2.x1.node4               0.103993
x1.x9.x1.x2.x2.x2.node5               0.997891
x1.x9.x1.x2.x2.x2.outa                0.996197
x1.x9.x1.x2.x2.orout               0.000371837
x1.x9.x1.x2.x2.x3.node5               0.999004
x1.x9.x1.x2.x2.x3.node4               0.800934
p1                                 0.000219133
x1.x9.x1.x3.node5                     0.997891
x1.x9.x1.x3.outa                      0.996197
x1.x9.nodec0                       0.000672428
x1.x9.x2.x1.x1.node5                  0.999437
x1.x9.x2.x1.x1.node4                  0.103514
x1.x9.x2.h1_carry                  0.000377338
x1.x9.x2.x1.x2.nandout                0.999722
x1.x9.x2.x1.x2.x1.node4               0.103543
x1.x9.x2.x1.x2.x2.node5               0.997896
x1.x9.x2.x1.x2.x2.outa                0.996207
x1.x9.x2.x1.x2.orout               0.000371802
x1.x9.x2.x1.x2.x3.node5               0.999005
x1.x9.x2.x1.x2.x3.node4               0.800934
x1.x9.x2.h1_sum                    0.000664013
x1.x9.x2.x2.x1.node5                  0.999438
x1.x9.x2.x2.x1.node4                  0.103657
x1.x9.x2.h2_carry                  0.000376197
x1.x9.x2.x2.x2.nandout                0.999722
x1.x9.x2.x2.x2.x1.node4               0.103676
x1.x9.x2.x2.x2.x2.node5               0.997887
x1.x9.x2.x2.x2.x2.outa                0.996188
x1.x9.x2.x2.x2.orout               0.000371869
x1.x9.x2.x2.x2.x3.node5               0.999005
x1.x9.x2.x2.x2.x3.node4               0.800934
x1.nodes1                          0.000664013
x1.x9.x2.x3.node5                     0.997891
x1.x9.x2.x3.outa                      0.996197
x1.x9.nodec1                       0.000672428
x1.x9.x3.x1.x1.node5                  0.999437
x1.x9.x3.x1.x1.node4                  0.103514
x1.x9.x3.h1_carry                  0.000377338
x1.x9.x3.x1.x2.nandout                0.999722
x1.x9.x3.x1.x2.x1.node4               0.103543
x1.x9.x3.x1.x2.x2.node5               0.997896
x1.x9.x3.x1.x2.x2.outa                0.996207
x1.x9.x3.x1.x2.orout               0.000371802
x1.x9.x3.x1.x2.x3.node5               0.999005
x1.x9.x3.x1.x2.x3.node4               0.800934
x1.x9.x3.h1_sum                    0.000664013
x1.x9.x3.x2.x1.node5                  0.999438
x1.x9.x3.x2.x1.node4                  0.103657
x1.x9.x3.h2_carry                  0.000376197
x1.x9.x3.x2.x2.nandout                0.999722
x1.x9.x3.x2.x2.x1.node4               0.103676
x1.x9.x3.x2.x2.x2.node5               0.997887
x1.x9.x3.x2.x2.x2.outa                0.996188
x1.x9.x3.x2.x2.orout               0.000371869
x1.x9.x3.x2.x2.x3.node5               0.999005
x1.x9.x3.x2.x2.x3.node4               0.800934
x1.nodes2                          0.000664013
x1.x9.x3.x3.node5                     0.997891
x1.x9.x3.x3.outa                      0.996197
x1.x9.nodec2                       0.000672428
x1.x9.x4.x1.x1.node5                  0.999437
x1.x9.x4.x1.x1.node4                  0.103514
x1.x9.x4.h1_carry                  0.000377338
x1.x9.x4.x1.x2.nandout                0.999722
x1.x9.x4.x1.x2.x1.node4               0.103543
x1.x9.x4.x1.x2.x2.node5               0.997896
x1.x9.x4.x1.x2.x2.outa                0.996207
x1.x9.x4.x1.x2.orout               0.000371802
x1.x9.x4.x1.x2.x3.node5               0.999005
x1.x9.x4.x1.x2.x3.node4               0.800934
x1.x9.x4.h1_sum                    0.000664013
x1.x9.x4.x2.x1.node5                  0.999438
x1.x9.x4.x2.x1.node4                  0.103657
x1.x9.x4.h2_carry                  0.000376197
x1.x9.x4.x2.x2.nandout                0.999722
x1.x9.x4.x2.x2.x1.node4               0.103676
x1.x9.x4.x2.x2.x2.node5               0.997887
x1.x9.x4.x2.x2.x2.outa                0.996188
x1.x9.x4.x2.x2.orout               0.000371869
x1.x9.x4.x2.x2.x3.node5               0.999005
x1.x9.x4.x2.x2.x3.node4               0.800934
x1.nodes3                          0.000664013
x1.x9.x4.x3.node5                     0.997891
x1.x9.x4.x3.outa                      0.996197
x1.nodec3                          0.000673597
x1.x10.node5                          0.999437
x1.x10.node4                          0.103514
x1.nodeaa0                         0.000661431
x1.x11.node5                          0.999437
x1.x11.node4                          0.103514
x1.nodeaa1                         0.000661431
x1.x12.node5                          0.999437
x1.x12.node4                          0.103514
x1.nodeaa2                         0.000661431
x1.x13.node5                          0.999437
x1.x13.node4                          0.103514
x1.nodeaa3                         0.000661431
x1.x14.x1.x1.x1.node5                 0.999438
x1.x14.x1.x1.x1.node4                 0.103649
x1.x14.x1.h1_carry                 0.000377336
x1.x14.x1.x1.x2.nandout               0.999722
x1.x14.x1.x1.x2.x1.node4              0.103681
x1.x14.x1.x1.x2.x2.node5              0.997887
x1.x14.x1.x1.x2.x2.outa               0.996188
x1.x14.x1.x1.x2.orout              0.000371869
x1.x14.x1.x1.x2.x3.node5              0.999005
x1.x14.x1.x1.x2.x3.node4              0.800934
x1.x14.x1.h1_sum                   0.000664014
x1.x14.x1.x2.x1.node5                 0.999437
x1.x14.x1.x2.x1.node4                 0.103201
x1.x14.x1.h2_carry                 0.000376198
x1.x14.x1.x2.x2.nandout               0.999722
x1.x14.x1.x2.x2.x1.node4              0.103993
x1.x14.x1.x2.x2.x2.node5              0.997891
x1.x14.x1.x2.x2.x2.outa               0.996197
x1.x14.x1.x2.x2.orout              0.000371837
x1.x14.x1.x2.x2.x3.node5              0.999004
x1.x14.x1.x2.x2.x3.node4              0.800934
p2                                 0.000219133
x1.x14.x1.x3.node5                    0.997891
x1.x14.x1.x3.outa                     0.996197
x1.x14.nodec0                      0.000672428
x1.x14.x2.x1.x1.node5                 0.999438
x1.x14.x2.x1.x1.node4                 0.103649
x1.x14.x2.h1_carry                 0.000377336
x1.x14.x2.x1.x2.nandout               0.999722
x1.x14.x2.x1.x2.x1.node4              0.103681
x1.x14.x2.x1.x2.x2.node5              0.997887
x1.x14.x2.x1.x2.x2.outa               0.996188
x1.x14.x2.x1.x2.orout              0.000371869
x1.x14.x2.x1.x2.x3.node5              0.999005
x1.x14.x2.x1.x2.x3.node4              0.800934
x1.x14.x2.h1_sum                   0.000664013
x1.x14.x2.x2.x1.node5                 0.999438
x1.x14.x2.x2.x1.node4                 0.103657
x1.x14.x2.h2_carry                 0.000376197
x1.x14.x2.x2.x2.nandout               0.999722
x1.x14.x2.x2.x2.x1.node4              0.103676
x1.x14.x2.x2.x2.x2.node5              0.997887
x1.x14.x2.x2.x2.x2.outa               0.996188
x1.x14.x2.x2.x2.orout              0.000371869
x1.x14.x2.x2.x2.x3.node5              0.999005
x1.x14.x2.x2.x2.x3.node4              0.800934
x1.nodess1                         0.000664013
x1.x14.x2.x3.node5                    0.997891
x1.x14.x2.x3.outa                     0.996197
x1.x14.nodec1                      0.000672428
x1.x14.x3.x1.x1.node5                 0.999438
x1.x14.x3.x1.x1.node4                 0.103649
x1.x14.x3.h1_carry                 0.000377336
x1.x14.x3.x1.x2.nandout               0.999722
x1.x14.x3.x1.x2.x1.node4              0.103681
x1.x14.x3.x1.x2.x2.node5              0.997887
x1.x14.x3.x1.x2.x2.outa               0.996188
x1.x14.x3.x1.x2.orout              0.000371869
x1.x14.x3.x1.x2.x3.node5              0.999005
x1.x14.x3.x1.x2.x3.node4              0.800934
x1.x14.x3.h1_sum                   0.000664013
x1.x14.x3.x2.x1.node5                 0.999438
x1.x14.x3.x2.x1.node4                 0.103657
x1.x14.x3.h2_carry                 0.000376197
x1.x14.x3.x2.x2.nandout               0.999722
x1.x14.x3.x2.x2.x1.node4              0.103676
x1.x14.x3.x2.x2.x2.node5              0.997887
x1.x14.x3.x2.x2.x2.outa               0.996188
x1.x14.x3.x2.x2.orout              0.000371869
x1.x14.x3.x2.x2.x3.node5              0.999005
x1.x14.x3.x2.x2.x3.node4              0.800934
x1.nodess2                         0.000664013
x1.x14.x3.x3.node5                    0.997891
x1.x14.x3.x3.outa                     0.996197
x1.x14.nodec2                      0.000672428
x1.x14.x4.x1.x1.node5                 0.999438
x1.x14.x4.x1.x1.node4                 0.103645
x1.x14.x4.h1_carry                 0.000377336
x1.x14.x4.x1.x2.nandout               0.999722
x1.x14.x4.x1.x2.x1.node4              0.103688
x1.x14.x4.x1.x2.x2.node5              0.997887
x1.x14.x4.x1.x2.x2.outa               0.996188
x1.x14.x4.x1.x2.orout              0.000371869
x1.x14.x4.x1.x2.x3.node5              0.999005
x1.x14.x4.x1.x2.x3.node4              0.800934
x1.x14.x4.h1_sum                   0.000664013
x1.x14.x4.x2.x1.node5                 0.999438
x1.x14.x4.x2.x1.node4                 0.103657
x1.x14.x4.h2_carry                 0.000376197
x1.x14.x4.x2.x2.nandout               0.999722
x1.x14.x4.x2.x2.x1.node4              0.103676
x1.x14.x4.x2.x2.x2.node5              0.997887
x1.x14.x4.x2.x2.x2.outa               0.996188
x1.x14.x4.x2.x2.orout              0.000371869
x1.x14.x4.x2.x2.x3.node5              0.999005
x1.x14.x4.x2.x2.x3.node4              0.800934
x1.nodess3                         0.000664013
x1.x14.x4.x3.node5                    0.997891
x1.x14.x4.x3.outa                     0.996197
x1.nodecc3                         0.000673597
x1.x15.node5                          0.999437
x1.x15.node4                          0.103514
x1.nodeaaa0                        0.000661431
x1.x16.node5                          0.999437
x1.x16.node4                          0.103514
x1.nodeaaa1                        0.000661431
x1.x17.node5                          0.999437
x1.x17.node4                          0.103514
x1.nodeaaa2                        0.000661431
x1.x18.node5                          0.999437
x1.x18.node4                          0.103514
x1.nodeaaa3                        0.000661431
x1.x19.x1.x1.x1.node5                 0.999438
x1.x19.x1.x1.x1.node4                 0.103649
x1.x19.x1.h1_carry                 0.000377336
x1.x19.x1.x1.x2.nandout               0.999722
x1.x19.x1.x1.x2.x1.node4              0.103681
x1.x19.x1.x1.x2.x2.node5              0.997887
x1.x19.x1.x1.x2.x2.outa               0.996188
x1.x19.x1.x1.x2.orout              0.000371869
x1.x19.x1.x1.x2.x3.node5              0.999005
x1.x19.x1.x1.x2.x3.node4              0.800934
x1.x19.x1.h1_sum                   0.000664014
x1.x19.x1.x2.x1.node5                 0.999437
x1.x19.x1.x2.x1.node4                 0.103201
x1.x19.x1.h2_carry                 0.000376198
x1.x19.x1.x2.x2.nandout               0.999722
x1.x19.x1.x2.x2.x1.node4              0.103993
x1.x19.x1.x2.x2.x2.node5              0.997891
x1.x19.x1.x2.x2.x2.outa               0.996197
x1.x19.x1.x2.x2.orout              0.000371837
x1.x19.x1.x2.x2.x3.node5              0.999004
x1.x19.x1.x2.x2.x3.node4              0.800934
p3                                 0.000219133
x1.x19.x1.x3.node5                    0.997891
x1.x19.x1.x3.outa                     0.996197
x1.x19.nodec0                      0.000672428
x1.x19.x2.x1.x1.node5                 0.999438
x1.x19.x2.x1.x1.node4                 0.103649
x1.x19.x2.h1_carry                 0.000377336
x1.x19.x2.x1.x2.nandout               0.999722
x1.x19.x2.x1.x2.x1.node4              0.103681
x1.x19.x2.x1.x2.x2.node5              0.997887
x1.x19.x2.x1.x2.x2.outa               0.996188
x1.x19.x2.x1.x2.orout              0.000371869
x1.x19.x2.x1.x2.x3.node5              0.999005
x1.x19.x2.x1.x2.x3.node4              0.800934
x1.x19.x2.h1_sum                   0.000664013
x1.x19.x2.x2.x1.node5                 0.999438
x1.x19.x2.x2.x1.node4                 0.103657
x1.x19.x2.h2_carry                 0.000376197
x1.x19.x2.x2.x2.nandout               0.999722
x1.x19.x2.x2.x2.x1.node4              0.103676
x1.x19.x2.x2.x2.x2.node5              0.997887
x1.x19.x2.x2.x2.x2.outa               0.996188
x1.x19.x2.x2.x2.orout              0.000371869
x1.x19.x2.x2.x2.x3.node5              0.999004
x1.x19.x2.x2.x2.x3.node4              0.800934
p4                                 0.000219133
x1.x19.x2.x3.node5                    0.997891
x1.x19.x2.x3.outa                     0.996197
x1.x19.nodec1                      0.000672428
x1.x19.x3.x1.x1.node5                 0.999438
x1.x19.x3.x1.x1.node4                 0.103649
x1.x19.x3.h1_carry                 0.000377336
x1.x19.x3.x1.x2.nandout               0.999722
x1.x19.x3.x1.x2.x1.node4              0.103681
x1.x19.x3.x1.x2.x2.node5              0.997887
x1.x19.x3.x1.x2.x2.outa               0.996188
x1.x19.x3.x1.x2.orout              0.000371869
x1.x19.x3.x1.x2.x3.node5              0.999005
x1.x19.x3.x1.x2.x3.node4              0.800934
x1.x19.x3.h1_sum                   0.000664013
x1.x19.x3.x2.x1.node5                 0.999438
x1.x19.x3.x2.x1.node4                 0.103657
x1.x19.x3.h2_carry                 0.000376197
x1.x19.x3.x2.x2.nandout               0.999722
x1.x19.x3.x2.x2.x1.node4              0.103676
x1.x19.x3.x2.x2.x2.node5              0.997887
x1.x19.x3.x2.x2.x2.outa               0.996188
x1.x19.x3.x2.x2.orout              0.000371869
x1.x19.x3.x2.x2.x3.node5              0.999004
x1.x19.x3.x2.x2.x3.node4              0.800934
p5                                 0.000219133
x1.x19.x3.x3.node5                    0.997891
x1.x19.x3.x3.outa                     0.996197
x1.x19.nodec2                      0.000672428
x1.x19.x4.x1.x1.node5                 0.999438
x1.x19.x4.x1.x1.node4                 0.103645
x1.x19.x4.h1_carry                 0.000377336
x1.x19.x4.x1.x2.nandout               0.999722
x1.x19.x4.x1.x2.x1.node4              0.103688
x1.x19.x4.x1.x2.x2.node5              0.997887
x1.x19.x4.x1.x2.x2.outa               0.996188
x1.x19.x4.x1.x2.orout              0.000371869
x1.x19.x4.x1.x2.x3.node5              0.999005
x1.x19.x4.x1.x2.x3.node4              0.800934
x1.x19.x4.h1_sum                   0.000664013
x1.x19.x4.x2.x1.node5                 0.999438
x1.x19.x4.x2.x1.node4                 0.103657
x1.x19.x4.h2_carry                 0.000376197
x1.x19.x4.x2.x2.nandout               0.999722
x1.x19.x4.x2.x2.x1.node4              0.103676
x1.x19.x4.x2.x2.x2.node5              0.997887
x1.x19.x4.x2.x2.x2.outa               0.996188
x1.x19.x4.x2.x2.orout              0.000371869
x1.x19.x4.x2.x2.x3.node5              0.999004
x1.x19.x4.x2.x2.x3.node4              0.800934
p6                                 0.000219133
x1.x19.x4.x3.node5                    0.997891
x1.x19.x4.x3.outa                     0.996196
p7                                  0.00022851
vinnnnnnnn#branch                  1.24896e-07
vinnnnnnn#branch                    2.8981e-07
vinnnnnn#branch                     2.8981e-07
vinnnnn#branch                      2.8981e-07
vinnnn#branch                      3.24086e-07
vinnn#branch                       3.24086e-07
vinn#branch                        3.24086e-07
vin#branch                         3.24086e-07
vdd#branch                        -1.73002e-05

 Reference value :  0.00000e+00
 Reference value :  3.35495e-10
 Reference value :  7.53087e-09
 Reference value :  1.06111e-08
 Reference value :  2.03262e-08
 Reference value :  2.07403e-08
 Reference value :  3.02202e-08
 Reference value :  3.06111e-08
 Reference value :  4.03262e-08
 Reference value :  4.07403e-08
 Reference value :  5.02202e-08
 Reference value :  5.06111e-08
 Reference value :  6.03262e-08
 Reference value :  6.07403e-08
 Reference value :  7.02067e-08
 Reference value :  7.06111e-08
 Reference value :  8.03262e-08
 Reference value :  8.07403e-08
 Reference value :  9.02202e-08
 Reference value :  9.06111e-08
 Reference value :  1.00326e-07
 Reference value :  1.00740e-07
 Reference value :  1.10220e-07
 Reference value :  1.10611e-07
No. of Data Rows : 449

  Measurements for Transient Analysis

trise               =  2.949172e-10 targ=  3.449172e-10 trig=  5.000000e-11
tfall               =  -9.721557e-09 targ=  4.284427e-10 trig=  1.015000e-08
temp                =  -4.71332e-09

Warning: Missing charsets in String to FontSet conversion
ngspice-37 done

Trying gmin =   1.0000E-03 Note: One successful gmin step
Trying gmin =   1.0000E-04 Note: One successful gmin step
Trying gmin =   1.0000E-05 Note: One successful gmin step
Trying gmin =   1.0000E-06 Warning: Further gmin increment
Trying gmin =   5.6234E-06 Warning: Further gmin increment
Trying gmin =   8.6596E-06 Note: One successful gmin step
Trying gmin =   6.9783E-06 Warning: Further gmin increment
Trying gmin =   8.2047E-06 Note: One successful gmin step
Trying gmin =   7.7737E-06 Note: One successful gmin step
Trying gmin =   7.1692E-06 Note: One successful gmin step
Trying gmin =   6.3494E-06 Note: One successful gmin step
Trying gmin =   5.2922E-06 Note: One successful gmin step
Trying gmin =   4.0270E-06 Note: One successful gmin step
Trying gmin =   2.6730E-06 Note: One successful gmin step
Trying gmin =   1.4456E-06 Note: One successful gmin step
Trying gmin =   5.7489E-07 Note: One successful gmin step
Trying gmin =   1.4418E-07 Note: One successful gmin step
Trying gmin =   1.8109E-08 Note: One successful gmin step
Trying gmin =   1.8109E-09 Note: One successful gmin step
Trying gmin =   1.8109E-10 Note: One successful gmin step
Trying gmin =   1.8109E-11 Note: One successful gmin step
Trying gmin =   1.8109E-12 Note: One successful gmin step
Trying gmin =   1.0000E-12 Note: One successful gmin step
[...]

trise               =  1.627274e-10 targ=  2.127274e-10 trig=  5.000000e-11
tfall               =  6.524240e-11 targ=  1.021524e-08 trig=  1.015000e-08
temp                =  1.13985e-10

Warning: Missing charsets in String to FontSet conversion
ngspice-37 done

Trying gmin =   1.0000E-03 Note: One successful gmin step
Trying gmin =   1.0000E-04 Note: One successful gmin step
Trying gmin =   1.0000E-05 Note: One successful gmin step
Trying gmin =   1.0000E-06 Warning: Further gmin increment
Trying gmin =   5.6234E-06 Warning: Further gmin increment
Trying gmin =   8.6596E-06 Note: One successful gmin step
Trying gmin =   6.9783E-06 Warning: Further gmin increment
Trying gmin =   8.2047E-06 Note: One successful gmin step
Trying gmin =   7.7737E-06 Note: One successful gmin step
Trying gmin =   7.1692E-06 Note: One successful gmin step
Trying gmin =   6.3494E-06 Note: One successful gmin step
Trying gmin =   5.2922E-06 Note: One successful gmin step
Trying gmin =   4.0270E-06 Note: One successful gmin step
Trying gmin =   2.6730E-06 Note: One successful gmin step
Trying gmin =   1.4456E-06 Note: One successful gmin step
Trying gmin =   5.7489E-07 Note: One successful gmin step
Trying gmin =   1.4418E-07 Note: One successful gmin step
Trying gmin =   1.8109E-08 Note: One successful gmin step
Trying gmin =   1.8109E-09 Note: One successful gmin step
Trying gmin =   1.8109E-10 Note: One successful gmin step
Trying gmin =   1.8109E-11 Note: One successful gmin step
Trying gmin =   1.8109E-12 Note: One successful gmin step
Trying gmin =   1.0000E-12 Note: One successful gmin step
Note: Dynamic gmin stepping completed


Note: No compatibility mode selected!


Circuit: ** title = "your mom"

Doing analysis at TEMP = 27.000000 and TNOM = 27.000000

Warning: toxe, toxp and dtox all given and toxe != toxp + dtox; dtox ignored.

Initial Transient Solution
--------------------------

Node                                   Voltage
----                                   -------
node1                                        1
a0                                           0
a1                                           0
a2                                           0
a3                                           0
b0                                           0
b1                                           0
b2                                           0
b3                                           0
x1.x1.node5                           0.999437
x1.x1.node4                           0.103514
p0                                 0.000217751
x1.x2.node5                           0.999437
x1.x2.node4                           0.103514
x1.x3.node5                           0.999437
x1.x3.node4                           0.103514
x1.x4.node5                           0.999437
x1.x4.node4                           0.103514
x1.x5.node5                           0.999437
x1.x5.node4                           0.103514
x1.x6.node5                           0.999437
x1.x6.node4                           0.103514
x1.x7.node5                           0.999437
x1.x7.node4                           0.103514
x1.x8.node5                           0.999437
x1.x8.node4                           0.103514
x1.x9.x1.x1.x1.node5                  0.999437
x1.x9.x1.x1.x1.node4                  0.103514
x1.x9.x1.h1_carry                  0.000377338
x1.x9.x1.x1.x2.nandout                0.999722
x1.x9.x1.x1.x2.x1.node4               0.103543
x1.x9.x1.x1.x2.x2.node5               0.997896
x1.x9.x1.x1.x2.x2.outa                0.996207
x1.x9.x1.x1.x2.orout               0.000371802
x1.x9.x1.x1.x2.x3.node5               0.999005
x1.x9.x1.x1.x2.x3.node4               0.800934
x1.x9.x1.h1_sum                    0.000664014
x1.x9.x1.x2.x1.node5                  0.999437
x1.x9.x1.x2.x1.node4                  0.103201
x1.x9.x1.h2_carry                  0.000376198
x1.x9.x1.x2.x2.nandout                0.999722
x1.x9.x1.x2.x2.x1.node4               0.103993
x1.x9.x1.x2.x2.x2.node5               0.997891
x1.x9.x1.x2.x2.x2.outa                0.996197
x1.x9.x1.x2.x2.orout               0.000371837
x1.x9.x1.x2.x2.x3.node5               0.999004
x1.x9.x1.x2.x2.x3.node4               0.800934
p1                                 0.000219133
x1.x9.x1.x3.node5                     0.997891
x1.x9.x1.x3.outa                      0.996197
x1.x9.nodec0                       0.000672428
x1.x9.x2.x1.x1.node5                  0.999437
x1.x9.x2.x1.x1.node4                  0.103514
x1.x9.x2.h1_carry                  0.000377338
x1.x9.x2.x1.x2.nandout                0.999722
x1.x9.x2.x1.x2.x1.node4               0.103543
x1.x9.x2.x1.x2.x2.node5               0.997896
x1.x9.x2.x1.x2.x2.outa                0.996207
x1.x9.x2.x1.x2.orout               0.000371802
x1.x9.x2.x1.x2.x3.node5               0.999005
x1.x9.x2.x1.x2.x3.node4               0.800934
x1.x9.x2.h1_sum                    0.000664013
x1.x9.x2.x2.x1.node5                  0.999438
x1.x9.x2.x2.x1.node4                  0.103657
x1.x9.x2.h2_carry                  0.000376197
x1.x9.x2.x2.x2.nandout                0.999722
x1.x9.x2.x2.x2.x1.node4               0.103676
x1.x9.x2.x2.x2.x2.node5               0.997887
x1.x9.x2.x2.x2.x2.outa                0.996188
x1.x9.x2.x2.x2.orout               0.000371869
x1.x9.x2.x2.x2.x3.node5               0.999005
x1.x9.x2.x2.x2.x3.node4               0.800934
x1.nodes1                          0.000664013
x1.x9.x2.x3.node5                     0.997891
x1.x9.x2.x3.outa                      0.996197
x1.x9.nodec1                       0.000672428
x1.x9.x3.x1.x1.node5                  0.999437
x1.x9.x3.x1.x1.node4                  0.103514
x1.x9.x3.h1_carry                  0.000377338
x1.x9.x3.x1.x2.nandout                0.999722
x1.x9.x3.x1.x2.x1.node4               0.103543
x1.x9.x3.x1.x2.x2.node5               0.997896
x1.x9.x3.x1.x2.x2.outa                0.996207
x1.x9.x3.x1.x2.orout               0.000371802
x1.x9.x3.x1.x2.x3.node5               0.999005
x1.x9.x3.x1.x2.x3.node4               0.800934
x1.x9.x3.h1_sum                    0.000664013
x1.x9.x3.x2.x1.node5                  0.999438
x1.x9.x3.x2.x1.node4                  0.103657
x1.x9.x3.h2_carry                  0.000376197
x1.x9.x3.x2.x2.nandout                0.999722
x1.x9.x3.x2.x2.x1.node4               0.103676
x1.x9.x3.x2.x2.x2.node5               0.997887
x1.x9.x3.x2.x2.x2.outa                0.996188
x1.x9.x3.x2.x2.orout               0.000371869
x1.x9.x3.x2.x2.x3.node5               0.999005
x1.x9.x3.x2.x2.x3.node4               0.800934
x1.nodes2                          0.000664013
x1.x9.x3.x3.node5                     0.997891
x1.x9.x3.x3.outa                      0.996197
x1.x9.nodec2                       0.000672428
x1.x9.x4.x1.x1.node5                  0.999437
x1.x9.x4.x1.x1.node4                  0.103514
x1.x9.x4.h1_carry                  0.000377338
x1.x9.x4.x1.x2.nandout                0.999722
x1.x9.x4.x1.x2.x1.node4               0.103543
x1.x9.x4.x1.x2.x2.node5               0.997896
x1.x9.x4.x1.x2.x2.outa                0.996207
x1.x9.x4.x1.x2.orout               0.000371802
x1.x9.x4.x1.x2.x3.node5               0.999005
x1.x9.x4.x1.x2.x3.node4               0.800934
x1.x9.x4.h1_sum                    0.000664013
x1.x9.x4.x2.x1.node5                  0.999438
x1.x9.x4.x2.x1.node4                  0.103657
x1.x9.x4.h2_carry                  0.000376197
x1.x9.x4.x2.x2.nandout                0.999722
x1.x9.x4.x2.x2.x1.node4               0.103676
x1.x9.x4.x2.x2.x2.node5               0.997887
x1.x9.x4.x2.x2.x2.outa                0.996188
x1.x9.x4.x2.x2.orout               0.000371869
x1.x9.x4.x2.x2.x3.node5               0.999005
x1.x9.x4.x2.x2.x3.node4               0.800934
x1.nodes3                          0.000664013
x1.x9.x4.x3.node5                     0.997891
x1.x9.x4.x3.outa                      0.996197
x1.nodec3                          0.000673597
x1.x10.node5                          0.999437
x1.x10.node4                          0.103514
x1.nodeaa0                         0.000661431
x1.x11.node5                          0.999437
x1.x11.node4                          0.103514
x1.nodeaa1                         0.000661431
x1.x12.node5                          0.999437
x1.x12.node4                          0.103514
x1.nodeaa2                         0.000661431
x1.x13.node5                          0.999437
x1.x13.node4                          0.103514
x1.nodeaa3                         0.000661431
x1.x14.x1.x1.x1.node5                 0.999438
x1.x14.x1.x1.x1.node4                 0.103649
x1.x14.x1.h1_carry                 0.000377336
x1.x14.x1.x1.x2.nandout               0.999722
x1.x14.x1.x1.x2.x1.node4              0.103681
x1.x14.x1.x1.x2.x2.node5              0.997887
x1.x14.x1.x1.x2.x2.outa               0.996188
x1.x14.x1.x1.x2.orout              0.000371869
x1.x14.x1.x1.x2.x3.node5              0.999005
x1.x14.x1.x1.x2.x3.node4              0.800934
x1.x14.x1.h1_sum                   0.000664014
x1.x14.x1.x2.x1.node5                 0.999437
x1.x14.x1.x2.x1.node4                 0.103201
x1.x14.x1.h2_carry                 0.000376198
x1.x14.x1.x2.x2.nandout               0.999722
x1.x14.x1.x2.x2.x1.node4              0.103993
x1.x14.x1.x2.x2.x2.node5              0.997891
x1.x14.x1.x2.x2.x2.outa               0.996197
x1.x14.x1.x2.x2.orout              0.000371837
x1.x14.x1.x2.x2.x3.node5              0.999004
x1.x14.x1.x2.x2.x3.node4              0.800934
p2                                 0.000219133
x1.x14.x1.x3.node5                    0.997891
x1.x14.x1.x3.outa                     0.996197
x1.x14.nodec0                      0.000672428
x1.x14.x2.x1.x1.node5                 0.999438
x1.x14.x2.x1.x1.node4                 0.103649
x1.x14.x2.h1_carry                 0.000377336
x1.x14.x2.x1.x2.nandout               0.999722
x1.x14.x2.x1.x2.x1.node4              0.103681
x1.x14.x2.x1.x2.x2.node5              0.997887
x1.x14.x2.x1.x2.x2.outa               0.996188
x1.x14.x2.x1.x2.orout              0.000371869
x1.x14.x2.x1.x2.x3.node5              0.999005
x1.x14.x2.x1.x2.x3.node4              0.800934
x1.x14.x2.h1_sum                   0.000664013
x1.x14.x2.x2.x1.node5                 0.999438
x1.x14.x2.x2.x1.node4                 0.103657
x1.x14.x2.h2_carry                 0.000376197
x1.x14.x2.x2.x2.nandout               0.999722
x1.x14.x2.x2.x2.x1.node4              0.103676
x1.x14.x2.x2.x2.x2.node5              0.997887
x1.x14.x2.x2.x2.x2.outa               0.996188
x1.x14.x2.x2.x2.orout              0.000371869
x1.x14.x2.x2.x2.x3.node5              0.999005
x1.x14.x2.x2.x2.x3.node4              0.800934
x1.nodess1                         0.000664013
x1.x14.x2.x3.node5                    0.997891
x1.x14.x2.x3.outa                     0.996197
x1.x14.nodec1                      0.000672428
x1.x14.x3.x1.x1.node5                 0.999438
x1.x14.x3.x1.x1.node4                 0.103649
x1.x14.x3.h1_carry                 0.000377336
x1.x14.x3.x1.x2.nandout               0.999722
x1.x14.x3.x1.x2.x1.node4              0.103681
x1.x14.x3.x1.x2.x2.node5              0.997887
x1.x14.x3.x1.x2.x2.outa               0.996188
x1.x14.x3.x1.x2.orout              0.000371869
x1.x14.x3.x1.x2.x3.node5              0.999005
x1.x14.x3.x1.x2.x3.node4              0.800934
x1.x14.x3.h1_sum                   0.000664013
x1.x14.x3.x2.x1.node5                 0.999438
x1.x14.x3.x2.x1.node4                 0.103657
x1.x14.x3.h2_carry                 0.000376197
x1.x14.x3.x2.x2.nandout               0.999722
x1.x14.x3.x2.x2.x1.node4              0.103676
x1.x14.x3.x2.x2.x2.node5              0.997887
x1.x14.x3.x2.x2.x2.outa               0.996188
x1.x14.x3.x2.x2.orout              0.000371869
x1.x14.x3.x2.x2.x3.node5              0.999005
x1.x14.x3.x2.x2.x3.node4              0.800934
x1.nodess2                         0.000664013
x1.x14.x3.x3.node5                    0.997891
x1.x14.x3.x3.outa                     0.996197
x1.x14.nodec2                      0.000672428
x1.x14.x4.x1.x1.node5                 0.999438
x1.x14.x4.x1.x1.node4                 0.103645
x1.x14.x4.h1_carry                 0.000377336
x1.x14.x4.x1.x2.nandout               0.999722
x1.x14.x4.x1.x2.x1.node4              0.103688
x1.x14.x4.x1.x2.x2.node5              0.997887
x1.x14.x4.x1.x2.x2.outa               0.996188
x1.x14.x4.x1.x2.orout              0.000371869
x1.x14.x4.x1.x2.x3.node5              0.999005
x1.x14.x4.x1.x2.x3.node4              0.800934
x1.x14.x4.h1_sum                   0.000664013
x1.x14.x4.x2.x1.node5                 0.999438
x1.x14.x4.x2.x1.node4                 0.103657
x1.x14.x4.h2_carry                 0.000376197
x1.x14.x4.x2.x2.nandout               0.999722
x1.x14.x4.x2.x2.x1.node4              0.103676
x1.x14.x4.x2.x2.x2.node5              0.997887
x1.x14.x4.x2.x2.x2.outa               0.996188
x1.x14.x4.x2.x2.orout              0.000371869
x1.x14.x4.x2.x2.x3.node5              0.999005
x1.x14.x4.x2.x2.x3.node4              0.800934
x1.nodess3                         0.000664013
x1.x14.x4.x3.node5                    0.997891
x1.x14.x4.x3.outa                     0.996197
x1.nodecc3                         0.000673597
x1.x15.node5                          0.999437
x1.x15.node4                          0.103514
x1.nodeaaa0                        0.000661431
x1.x16.node5                          0.999437
x1.x16.node4                          0.103514
x1.nodeaaa1                        0.000661431
x1.x17.node5                          0.999437
x1.x17.node4                          0.103514
x1.nodeaaa2                        0.000661431
x1.x18.node5                          0.999437
x1.x18.node4                          0.103514
x1.nodeaaa3                        0.000661431
x1.x19.x1.x1.x1.node5                 0.999438
x1.x19.x1.x1.x1.node4                 0.103649
x1.x19.x1.h1_carry                 0.000377336
x1.x19.x1.x1.x2.nandout               0.999722
x1.x19.x1.x1.x2.x1.node4              0.103681
x1.x19.x1.x1.x2.x2.node5              0.997887
x1.x19.x1.x1.x2.x2.outa               0.996188
x1.x19.x1.x1.x2.orout              0.000371869
x1.x19.x1.x1.x2.x3.node5              0.999005
x1.x19.x1.x1.x2.x3.node4              0.800934
x1.x19.x1.h1_sum                   0.000664014
x1.x19.x1.x2.x1.node5                 0.999437
x1.x19.x1.x2.x1.node4                 0.103201
x1.x19.x1.h2_carry                 0.000376198
x1.x19.x1.x2.x2.nandout               0.999722
x1.x19.x1.x2.x2.x1.node4              0.103993
x1.x19.x1.x2.x2.x2.node5              0.997891
x1.x19.x1.x2.x2.x2.outa               0.996197
x1.x19.x1.x2.x2.orout              0.000371837
x1.x19.x1.x2.x2.x3.node5              0.999004
x1.x19.x1.x2.x2.x3.node4              0.800934
p3                                 0.000219133
x1.x19.x1.x3.node5                    0.997891
x1.x19.x1.x3.outa                     0.996197
x1.x19.nodec0                      0.000672428
x1.x19.x2.x1.x1.node5                 0.999438
x1.x19.x2.x1.x1.node4                 0.103649
x1.x19.x2.h1_carry                 0.000377336
x1.x19.x2.x1.x2.nandout               0.999722
x1.x19.x2.x1.x2.x1.node4              0.103681
x1.x19.x2.x1.x2.x2.node5              0.997887
x1.x19.x2.x1.x2.x2.outa               0.996188
x1.x19.x2.x1.x2.orout              0.000371869
x1.x19.x2.x1.x2.x3.node5              0.999005
x1.x19.x2.x1.x2.x3.node4              0.800934
x1.x19.x2.h1_sum                   0.000664013
x1.x19.x2.x2.x1.node5                 0.999438
x1.x19.x2.x2.x1.node4                 0.103657
x1.x19.x2.h2_carry                 0.000376197
x1.x19.x2.x2.x2.nandout               0.999722
x1.x19.x2.x2.x2.x1.node4              0.103676
x1.x19.x2.x2.x2.x2.node5              0.997887
x1.x19.x2.x2.x2.x2.outa               0.996188
x1.x19.x2.x2.x2.orout              0.000371869
x1.x19.x2.x2.x2.x3.node5              0.999004
x1.x19.x2.x2.x2.x3.node4              0.800934
p4                                 0.000219133
x1.x19.x2.x3.node5                    0.997891
x1.x19.x2.x3.outa                     0.996197
x1.x19.nodec1                      0.000672428
x1.x19.x3.x1.x1.node5                 0.999438
x1.x19.x3.x1.x1.node4                 0.103649
x1.x19.x3.h1_carry                 0.000377336
x1.x19.x3.x1.x2.nandout               0.999722
x1.x19.x3.x1.x2.x1.node4              0.103681
x1.x19.x3.x1.x2.x2.node5              0.997887
x1.x19.x3.x1.x2.x2.outa               0.996188
x1.x19.x3.x1.x2.orout              0.000371869
x1.x19.x3.x1.x2.x3.node5              0.999005
x1.x19.x3.x1.x2.x3.node4              0.800934
x1.x19.x3.h1_sum                   0.000664013
x1.x19.x3.x2.x1.node5                 0.999438
x1.x19.x3.x2.x1.node4                 0.103657
x1.x19.x3.h2_carry                 0.000376197
x1.x19.x3.x2.x2.nandout               0.999722
x1.x19.x3.x2.x2.x1.node4              0.103676
x1.x19.x3.x2.x2.x2.node5              0.997887
x1.x19.x3.x2.x2.x2.outa               0.996188
x1.x19.x3.x2.x2.orout              0.000371869
x1.x19.x3.x2.x2.x3.node5              0.999004
x1.x19.x3.x2.x2.x3.node4              0.800934
p5                                 0.000219133
x1.x19.x3.x3.node5                    0.997891
x1.x19.x3.x3.outa                     0.996197
x1.x19.nodec2                      0.000672428
x1.x19.x4.x1.x1.node5                 0.999438
x1.x19.x4.x1.x1.node4                 0.103645
x1.x19.x4.h1_carry                 0.000377336
x1.x19.x4.x1.x2.nandout               0.999722
x1.x19.x4.x1.x2.x1.node4              0.103688
x1.x19.x4.x1.x2.x2.node5              0.997887
x1.x19.x4.x1.x2.x2.outa               0.996188
x1.x19.x4.x1.x2.orout              0.000371869
x1.x19.x4.x1.x2.x3.node5              0.999005
x1.x19.x4.x1.x2.x3.node4              0.800934
x1.x19.x4.h1_sum                   0.000664013
x1.x19.x4.x2.x1.node5                 0.999438
x1.x19.x4.x2.x1.node4                 0.103657
x1.x19.x4.h2_carry                 0.000376197
x1.x19.x4.x2.x2.nandout               0.999722
x1.x19.x4.x2.x2.x1.node4              0.103676
x1.x19.x4.x2.x2.x2.node5              0.997887
x1.x19.x4.x2.x2.x2.outa               0.996188
x1.x19.x4.x2.x2.orout              0.000371869
x1.x19.x4.x2.x2.x3.node5              0.999004
x1.x19.x4.x2.x2.x3.node4              0.800934
p6                                 0.000219133
x1.x19.x4.x3.node5                    0.997891
x1.x19.x4.x3.outa                     0.996196
p7                                  0.00022851
vinnnnnnnn#branch                  1.24896e-07
vinnnnnnn#branch                    2.8981e-07
vinnnnnn#branch                     2.8981e-07
vinnnnn#branch                      2.8981e-07
vinnnn#branch                      3.24086e-07
vinnn#branch                       3.24086e-07
vinn#branch                        3.24086e-07
vin#branch                         3.24086e-07
vdd#branch                        -1.73002e-05

 Reference value :  0.00000e+00
 Reference value :  2.04420e-10
 Reference value :  4.14931e-09
 Reference value :  1.03880e-08
 Reference value :  1.76571e-08
 Reference value :  2.02287e-08
 Reference value :  2.04935e-08
 Reference value :  3.05779e-08
 Reference value :  4.01080e-08
 Reference value :  4.03309e-08
 Reference value :  4.09589e-08
 Reference value :  5.05779e-08
 Reference value :  6.01240e-08
 Reference value :  6.03309e-08
 Reference value :  6.05245e-08
 Reference value :  7.05779e-08
 Reference value :  8.01000e-08
 Reference value :  8.02807e-08
 Reference value :  8.05245e-08
 Reference value :  9.05779e-08
 Reference value :  1.00124e-07
 Reference value :  1.00281e-07
 Reference value :  1.00494e-07
 Reference value :  1.10578e-07
No. of Data Rows : 327

  Measurements for Transient Analysis

trise               =  2.527552e-10 targ=  3.027552e-10 trig=  5.000000e-11
tfall               =  1.506693e-11 targ=  1.016507e-08 trig=  1.015000e-08
temp                =  1.33911e-10

Warning: Missing charsets in String to FontSet conversion
ngspice-37 done
