


Circuit: *INCLUDE 22nm_MGK.pm




No. of Data Rows : 2
                              *INCLUDE 22nm_MGK.pm
                              DC transfer characteristic  Mon Nov 28 09:46:54  2022
--------------------------------------------------------------------------------
Index   temp-sweep      v(node1)        v(a0)           v(a1)           
--------------------------------------------------------------------------------
0	3.000000e+01	1.000000e+00	0.000000e+00	0.000000e+00	
1	1.000000e+02	1.000000e+00	0.000000e+00	0.000000e+00	

                              *INCLUDE 22nm_MGK.pm
                              DC transfer characteristic  Mon Nov 28 09:46:54  2022
--------------------------------------------------------------------------------
Index   temp-sweep      v(a2)           v(a3)           v(b0)           
--------------------------------------------------------------------------------
0	3.000000e+01	0.000000e+00	0.000000e+00	0.000000e+00	
1	1.000000e+02	0.000000e+00	0.000000e+00	0.000000e+00	

                              *INCLUDE 22nm_MGK.pm
                              DC transfer characteristic  Mon Nov 28 09:46:54  2022
--------------------------------------------------------------------------------
Index   temp-sweep      v(b1)           v(b2)           v(b3)           
--------------------------------------------------------------------------------
0	3.000000e+01	0.000000e+00	0.000000e+00	0.000000e+00	
1	1.000000e+02	0.000000e+00	0.000000e+00	0.000000e+00	

                              *INCLUDE 22nm_MGK.pm
                              DC transfer characteristic  Mon Nov 28 09:46:54  2022
--------------------------------------------------------------------------------
Index   temp-sweep      (-v(node1)*i(vd 
--------------------------------------------------------------------------------
0	3.000000e+01	2.410510e-05	
1	1.000000e+02	3.442678e-05	
Doing analysis at TEMP = 27.000000 and TNOM = 27.000000


No. of Data Rows : 2
                              *INCLUDE 22nm_MGK.pm
                              DC transfer characteristic  Mon Nov 28 09:46:55  2022
--------------------------------------------------------------------------------
Index   temp-sweep      v(node1)        v(a0)           v(a1)           
--------------------------------------------------------------------------------
0	3.000000e+01	1.000000e+00	0.000000e+00	0.000000e+00	
1	1.000000e+02	1.000000e+00	0.000000e+00	0.000000e+00	

                              *INCLUDE 22nm_MGK.pm
                              DC transfer characteristic  Mon Nov 28 09:46:55  2022
--------------------------------------------------------------------------------
Index   temp-sweep      v(a2)           v(a3)           v(b0)           
---------------------------------------------Note: Starting dynamic gmin stepping

Note: Dynamic gmin stepping completed
 Reference value :  3.00000e+01
Note: Starting dynamic gmin stepping

Note: Dynamic gmin stepping completed
 Reference value :  3.00000e+01
-----------------------------------
0	3.000000e+01	0.000000e+00	0.000000e+00	0.000000e+00	
1	1.000000e+02	0.000000e+00	0.000000e+00	0.000000e+00	

                              *INCLUDE 22nm_MGK.pm
                              DC transfer characteristic  Mon Nov 28 09:46:55  2022
--------------------------------------------------------------------------------
Index   temp-sweep      v(b1)           v(b2)           v(b3)           
--------------------------------------------------------------------------------
0	3.000000e+01	0.000000e+00	0.000000e+00	1.000000e+00	
1	1.000000e+02	0.000000e+00	0.000000e+00	1.000000e+00	

                              *INCLUDE 22nm_MGK.pm
                              DC transfer characteristic  Mon Nov 28 09:46:55  2022
--------------------------------------------------------------------------------
Index   temp-sweep      (-v(node1)*i(vd 
--------------------------------------------------------------------------------
0	3.000000e+01	2.400860e-05	
1	1.000000e+02	3.448815e-05	
Doing analysis at TEMP = 27.000000 and TNOM = 27.000000


No. of Data Rows : 2
                              *INCLUDE 22nm_MGK.pm
                              DC transfer characteristic  Mon Nov 28 09:46:55  2022
--------------------------------------------------------------------------------
Index   temp-sweep      v(node1)        v(a0)           v(a1)           
--------------------------------------------------------------------------------
0	3.000000e+01	1.000000e+00	0.000000e+00	0.000000e+00	
1	1.000000e+02	1.000000e+00	0.000000e+00	0.000000e+00	

                              *INCLUDE 22nm_MGK.pm
                              DC transfer characteristic  Mon Nov 28 09:46:55  2022
--------------------------------------------------------------------------------
Index   temp-sweep      v(a2)           v(a3)           v(b0)           
--------------------------------------------------------------------------------
0	3.000000e+01	0.000000e+00	0.000000e+00	0.000000e+00	
1	1.000000e+02	0.000000e+00	0.000000e+00	0.000000e+00	

                              *INCLUDE 22nm_MGK.pm
                              DC transfer characteristic  Mon Nov 28 09:46:55  2022
--------------------------------------------------------------------------------
Index   temp-sweep      v(b1)           v(b2)           v(b3)           
--------------------------------------------------------------------------------
0	3.000000e+01	0.000000e+00	1.000000e+00	0.000000e+00	
1	1.000000e+02	0.000000e+00	1.000000e+00	0.000000e+00	

                              *INCLUDE 22nm_MGK.pm
                              DC transfer characteristic  Mon Nov 28 09:46:55  2022
--------------------------------------------------------------------------------
Index   temp-sweep      (-v(node1)*i(vd 
--------------------------------------------------------------------------------
0	3.000000e+01	2.400860e-05	
1	1.000000e+02	3.448815e-05	
Doing analysis at TEMP = 27.000000 and TNOM = 27.000000


No. of Data Rows : 2
                              *INCLUDE 22nm_MGK.pm
                              DC transfer characteristic  Mon Nov 28 09:46:55  2022
--------------------------------------------------------------------------------
Index   temp-sweep      v(node1)        v(a0)           v(a1)           
-Note: Starting dynamic gmin stepping

Note: Dynamic gmin stepping completed
 Reference value :  3.00000e+01
Note: Starting dynamic gmin stepping

Note: Dynamic gmin stepping completed
 Reference value :  3.00000e+01
-------------------------------------------------------------------------------
0	3.000000e+01	1.000000e+00	0.000000e+00	0.000000e+00	
1	1.000000e+02	1.000000e+00	0.000000e+00	0.000000e+00	

                              *INCLUDE 22nm_MGK.pm
                              DC transfer characteristic  Mon Nov 28 09:46:55  2022
--------------------------------------------------------------------------------
Index   temp-sweep      v(a2)           v(a3)           v(b0)           
--------------------------------------------------------------------------------
0	3.000000e+01	0.000000e+00	0.000000e+00	0.000000e+00	
1	1.000000e+02	0.000000e+00	0.000000e+00	0.000000e+00	

                              *INCLUDE 22nm_MGK.pm
                              DC transfer characteristic  Mon Nov 28 09:46:55  2022
--------------------------------------------------------------------------------
Index   temp-sweep      v(b1)           v(b2)           v(b3)           
--------------------------------------------------------------------------------
0	3.000000e+01	0.000000e+00	1.000000e+00	1.000000e+00	
1	1.000000e+02	0.000000e+00	1.000000e+00	1.000000e+00	

                              *INCLUDE 22nm_MGK.pm
                              DC transfer characteristic  Mon Nov 28 09:46:55  2022
--------------------------------------------------------------------------------
Index   temp-sweep      (-v(node1)*i(vd 
--------------------------------------------------------------------------------
0	3.000000e+01	2.391210e-05	
1	1.000000e+02	3.454951e-05	
Doing analysis at TEMP = 27.000000 and TNOM = 27.000000


No. of Data Rows : 2
                              *INCLUDE 22nm_MGK.pm
                              DC transfer characteristic  Mon Nov 28 09:46:56  2022
--------------------------------------------------------------------------------
Index   temp-sweep      v(node1)        v(a0)           v(a1)           
--------------------------------------------------------------------------------
0	3.000000e+01	1.000000e+00	0.000000e+00	0.000000e+00	
1	1.000000e+02	1.000000e+00	0.000000e+00	0.000000e+00	

                              *INCLUDE 22nm_MGK.pm
                              DC transfer characteristic  Mon Nov 28 09:46:56  2022
--------------------------------------------------------------------------------
Index   temp-sweep      v(a2)           v(a3)           v(b0)           
--------------------------------------------------------------------------------
0	3.000000e+01	0.000000e+00	0.000000e+00	0.000000e+00	
1	1.000000e+02	0.000000e+00	0.000000e+00	0.000000e+00	

                              *INCLUDE 22nm_MGK.pm
                              DC transfer characteristic  Mon Nov 28 09:46:56  2022
--------------------------------------------------------------------------------
Index   temp-sweep      v(b1)           v(b2)           v(b3)           
--------------------------------------------------------------------------------
0	3.000000e+01	1.000000e+00	0.000000e+00	0.000000e+00	
1	1.000000e+02	1.000000e+00	0.000000e+00	0.000000e+00	

                              *INCLUDE 22nm_MGK.pm
                              DC transfer characteristic  Mon Nov 28 09:46:56  2022
--------------------------------------------------------------------------------
Index   temp-sweep      (-v(node1)*i(vd 
--------------------------------------------------------------------------------
0	3.000000e+01	2.400860e-05	
1	1.000000e+02	3.448812e-05	
Doing analysis at TEMP = 27.000000 and TNOM = 27.000000

Warning: toxe, toxp and dtox all given and toxe != toxp + dtox; dtox ignored.
Warning: toxe, toxp and dtox all given and toxe != toxp + dtox; dtox ignored.
Warning: toxe, toxp Note: Starting dynamic gmin stepping

Note: Dynamic gmin stepping completed
 Reference value :  3.00000e+01
and dtox all given and toxe != toxp + dtox; dtox ignored.
Warning: toxe, toxp and dtox all given and toxe != toxp + dtox; dtox ignored.
Warning: toxe, toxp and dtox all given and toxe != toxp + dtox; dtox ignored.

No. of Data Rows : 2
                              *INCLUDE 22nm_MGK.pm
                              DC transfer characteristic  Mon Nov 28 09:46:56  2022
--------------------------------------------------------------------------------
Index   temp-sweep      v(node1)        v(a0)           v(a1)           
--------------------------------------------------------------------------------
0	3.000000e+01	1.000000e+00	0.000000e+00	0.000000e+00	
1	1.000000e+02	1.000000e+00	0.000000e+00	0.000000e+00	

                              *INCLUDE 22nm_MGK.pm
                              DC transfer characteristic  Mon Nov 28 09:46:56  2022
--------------------------------------------------------------------------------
Index   temp-sweep      v(a2)           v(a3)           v(b0)           
--------------------------------------------------------------------------------
0	3.000000e+01	0.000000e+00	0.000000e+00	0.000000e+00	
1	1.000000e+02	0.000000e+00	0.000000e+00	0.000000e+00	

                              *INCLUDE 22nm_MGK.pm
                              DC transfer characteristic  Mon Nov 28 09:46:56  2022
--------------------------------------------------------------------------------
Index   temp-sweep      v(b1)           v(b2)           v(b3)           
--------------------------------------------------------------------------------
0	3.000000e+01	1.000000e+00	0.000000e+00	1.000000e+00	
1	1.000000e+02	1.000000e+00	0.000000e+00	1.000000e+00	

                              *INCLUDE 22nm_MGK.pm
                              DC transfer characteristic  Mon Nov 28 09:46:56  2022
--------------------------------------------------------------------------------
Index   temp-sweep      (-v(node1)*i(vd 
--------------------------------------------------------------------------------
0	3.000000e+01	2.391210e-05	
1	1.000000e+02	3.454948e-05	
Doing analysis at TEMP = 27.000000 and TNOM = 27.000000


No. of Data Rows : 2
                              *INCLUDE 22nm_MGK.pm
                              DC transfer characteristic  Mon Nov 28 09:46:56  2022
--------------------------------------------------------------------------------
Index   temp-sweep      v(node1)        v(a0)           v(a1)           
--------------------------------------------------------------------------------
0	3.000000e+01	1.000000e+00	0.000000e+00	0.000000e+00	
1	1.000000e+02	1.000000e+00	0.000000e+00	0.000000e+00	

                              *INCLUDE 22nm_MGK.pm
                              DC transfer characteristic  Mon Nov 28 09:46:56  2022
--------------------------------------------------------------------------------
Index   temp-sweep      v(a2)           v(a3)           v(b0)           
--------------------------------------------------------------------------------
0	3.000000e+01	0.000000e+00	0.000000e+00	0.000000e+00	
1	1.000000e+02	0.000000e+00	0.000000e+00	0.000000e+00	

                              *INCLUDE 22nm_MGK.pm
                              DC transfer characteristic  Mon Nov 28 09:46:56  2022
--------------------------------------------------------------------------------
Index   temp-sweep      v(b1)           v(b2)           v(b3)           
--------------------------------------------------------------------------------
0	3.000000e+01	1.000000e+00	1.000000e+00	0.000000e+00	
1	1.000000e+02	1.000000e+00	1.000000e+00	0.000000e+00	

                              *INCLUDE 22nm_MGK.pm
                              DC transfer characteriNote: Starting dynamic gmin stepping

Note: Dynamic gmin stepping completed
 Reference value :  3.00000e+01
Note: Starting dynamic gmin stepping

Note: Dynamic gmin stepping completed
 Reference value :  3.00000e+01
stic  Mon Nov 28 09:46:56  2022
--------------------------------------------------------------------------------
Index   temp-sweep      (-v(node1)*i(vd 
--------------------------------------------------------------------------------
0	3.000000e+01	2.391210e-05	
1	1.000000e+02	3.454949e-05	
Doing analysis at TEMP = 27.000000 and TNOM = 27.000000


No. of Data Rows : 2
                              *INCLUDE 22nm_MGK.pm
                              DC transfer characteristic  Mon Nov 28 09:46:57  2022
--------------------------------------------------------------------------------
Index   temp-sweep      v(node1)        v(a0)           v(a1)           
--------------------------------------------------------------------------------
0	3.000000e+01	1.000000e+00	0.000000e+00	0.000000e+00	
1	1.000000e+02	1.000000e+00	0.000000e+00	0.000000e+00	

                              *INCLUDE 22nm_MGK.pm
                              DC transfer characteristic  Mon Nov 28 09:46:57  2022
--------------------------------------------------------------------------------
Index   temp-sweep      v(a2)           v(a3)           v(b0)           
--------------------------------------------------------------------------------
0	3.000000e+01	0.000000e+00	0.000000e+00	0.000000e+00	
1	1.000000e+02	0.000000e+00	0.000000e+00	0.000000e+00	

                              *INCLUDE 22nm_MGK.pm
                              DC transfer characteristic  Mon Nov 28 09:46:57  2022
--------------------------------------------------------------------------------
Index   temp-sweep      v(b1)           v(b2)           v(b3)           
--------------------------------------------------------------------------------
0	3.000000e+01	1.000000e+00	1.000000e+00	1.000000e+00	
1	1.000000e+02	1.000000e+00	1.000000e+00	1.000000e+00	

                              *INCLUDE 22nm_MGK.pm
                              DC transfer characteristic  Mon Nov 28 09:46:57  2022
--------------------------------------------------------------------------------
Index   temp-sweep      (-v(node1)*i(vd 
--------------------------------------------------------------------------------
0	3.000000e+01	2.381560e-05	
1	1.000000e+02	3.461085e-05	
Doing analysis at TEMP = 27.000000 and TNOM = 27.000000


No. of Data Rows : 2
                              *INCLUDE 22nm_MGK.pm
                              DC transfer characteristic  Mon Nov 28 09:46:57  2022
--------------------------------------------------------------------------------
Index   temp-sweep      v(node1)        v(a0)           v(a1)           
--------------------------------------------------------------------------------
0	3.000000e+01	1.000000e+00	0.000000e+00	0.000000e+00	
1	1.000000e+02	1.000000e+00	0.000000e+00	0.000000e+00	

                              *INCLUDE 22nm_MGK.pm
                              DC transfer characteristic  Mon Nov 28 09:46:57  2022
--------------------------------------------------------------------------------
Index   temp-sweep      v(a2)           v(a3)           v(b0)           
--------------------------------------------------------------------------------
0	3.000000e+01	0.000000e+00	0.000000e+00	1.000000e+00	
1	1.000000e+02	0.000000e+00	0.000000e+00	1.000000e+00	

                              *INCLUDE 22nm_MGK.pm
        Note: Starting dynamic gmin stepping

Note: Dynamic gmin stepping completed
 Reference value :  3.00000e+01
Note: Starting dynamic gmin stepping

Note: Dynamic gmin stepping completed
 Reference value :  3.00000e+01
                      DC transfer characteristic  Mon Nov 28 09:46:57  2022
--------------------------------------------------------------------------------
Index   temp-sweep      v(b1)           v(b2)           v(b3)           
--------------------------------------------------------------------------------
0	3.000000e+01	0.000000e+00	0.000000e+00	0.000000e+00	
1	1.000000e+02	0.000000e+00	0.000000e+00	0.000000e+00	

                              *INCLUDE 22nm_MGK.pm
                              DC transfer characteristic  Mon Nov 28 09:46:57  2022
--------------------------------------------------------------------------------
Index   temp-sweep      (-v(node1)*i(vd 
--------------------------------------------------------------------------------
0	3.000000e+01	2.400861e-05	
1	1.000000e+02	3.448820e-05	
Doing analysis at TEMP = 27.000000 and TNOM = 27.000000


No. of Data Rows : 2
                              *INCLUDE 22nm_MGK.pm
                              DC transfer characteristic  Mon Nov 28 09:46:57  2022
--------------------------------------------------------------------------------
Index   temp-sweep      v(node1)        v(a0)           v(a1)           
--------------------------------------------------------------------------------
0	3.000000e+01	1.000000e+00	0.000000e+00	0.000000e+00	
1	1.000000e+02	1.000000e+00	0.000000e+00	0.000000e+00	

                              *INCLUDE 22nm_MGK.pm
                              DC transfer characteristic  Mon Nov 28 09:46:57  2022
--------------------------------------------------------------------------------
Index   temp-sweep      v(a2)           v(a3)           v(b0)           
--------------------------------------------------------------------------------
0	3.000000e+01	0.000000e+00	0.000000e+00	1.000000e+00	
1	1.000000e+02	0.000000e+00	0.000000e+00	1.000000e+00	

                              *INCLUDE 22nm_MGK.pm
                              DC transfer characteristic  Mon Nov 28 09:46:57  2022
--------------------------------------------------------------------------------
Index   temp-sweep      v(b1)           v(b2)           v(b3)           
--------------------------------------------------------------------------------
0	3.000000e+01	0.000000e+00	0.000000e+00	1.000000e+00	
1	1.000000e+02	0.000000e+00	0.000000e+00	1.000000e+00	

                              *INCLUDE 22nm_MGK.pm
                              DC transfer characteristic  Mon Nov 28 09:46:57  2022
--------------------------------------------------------------------------------
Index   temp-sweep      (-v(node1)*i(vd 
--------------------------------------------------------------------------------
0	3.000000e+01	2.391211e-05	
1	1.000000e+02	3.454957e-05	
Doing analysis at TEMP = 27.000000 and TNOM = 27.000000


No. of Data Rows : 2
                              *INCLUDE 22nm_MGK.pm
                              DC transfer characteristic  Mon Nov 28 09:46:57  2022
--------------------------------------------------------------------------------
Index   temp-sweep      v(node1)        v(a0)           v(a1)           
--------------------------------------------------------------------------------
0	3.000000e+01	1.000000e+00	0.000000e+00	0.000000e+00	
1	1.000000e+02	1.000000e+00	0.000000e+00	0.000000e+00	

               Note: Starting dynamic gmin stepping

Note: Dynamic gmin stepping completed
 Reference value :  3.00000e+01
Note: Starting dynamic gmin stepping

Note: Dynamic gmin stepping completed
 Reference value :  3.00000e+01
               *INCLUDE 22nm_MGK.pm
                              DC transfer characteristic  Mon Nov 28 09:46:57  2022
--------------------------------------------------------------------------------
Index   temp-sweep      v(a2)           v(a3)           v(b0)           
--------------------------------------------------------------------------------
0	3.000000e+01	0.000000e+00	0.000000e+00	1.000000e+00	
1	1.000000e+02	0.000000e+00	0.000000e+00	1.000000e+00	

                              *INCLUDE 22nm_MGK.pm
                              DC transfer characteristic  Mon Nov 28 09:46:57  2022
--------------------------------------------------------------------------------
Index   temp-sweep      v(b1)           v(b2)           v(b3)           
--------------------------------------------------------------------------------
0	3.000000e+01	0.000000e+00	1.000000e+00	0.000000e+00	
1	1.000000e+02	0.000000e+00	1.000000e+00	0.000000e+00	

                              *INCLUDE 22nm_MGK.pm
                              DC transfer characteristic  Mon Nov 28 09:46:57  2022
--------------------------------------------------------------------------------
Index   temp-sweep      (-v(node1)*i(vd 
--------------------------------------------------------------------------------
0	3.000000e+01	2.391211e-05	
1	1.000000e+02	3.454957e-05	
Doing analysis at TEMP = 27.000000 and TNOM = 27.000000


No. of Data Rows : 2
                              *INCLUDE 22nm_MGK.pm
                              DC transfer characteristic  Mon Nov 28 09:46:58  2022
--------------------------------------------------------------------------------
Index   temp-sweep      v(node1)        v(a0)           v(a1)           
--------------------------------------------------------------------------------
0	3.000000e+01	1.000000e+00	0.000000e+00	0.000000e+00	
1	1.000000e+02	1.000000e+00	0.000000e+00	0.000000e+00	

                              *INCLUDE 22nm_MGK.pm
                              DC transfer characteristic  Mon Nov 28 09:46:58  2022
--------------------------------------------------------------------------------
Index   temp-sweep      v(a2)           v(a3)           v(b0)           
--------------------------------------------------------------------------------
0	3.000000e+01	0.000000e+00	0.000000e+00	1.000000e+00	
1	1.000000e+02	0.000000e+00	0.000000e+00	1.000000e+00	

                              *INCLUDE 22nm_MGK.pm
                              DC transfer characteristic  Mon Nov 28 09:46:58  2022
--------------------------------------------------------------------------------
Index   temp-sweep      v(b1)           v(b2)           v(b3)           
--------------------------------------------------------------------------------
0	3.000000e+01	0.000000e+00	1.000000e+00	1.000000e+00	
1	1.000000e+02	0.000000e+00	1.000000e+00	1.000000e+00	

                              *INCLUDE 22nm_MGK.pm
                              DC transfer characteristic  Mon Nov 28 09:46:58  2022
--------------------------------------------------------------------------------
Index   temp-sweep      (-v(node1)*i(vd 
--------------------------------------------------------------------------------
0	3.000000e+01	2.381561e-05	
1	1.000000e+02	3.461093e-05	
Doing analysis at TEMP = 27.000000 and TNOM = 27.000000

Warning: toxe, toxp and dtox all given and toxe != toxp + dtox; dtox ignored.
Warning: toxe, toxp and dtox all given and toxe != toxp + dtox; dtox ignored.
Warning: toxe, toxp and dtox all given and toxe != toxp + dtox; dtox ignored.
Warning: toxe, toxp and dtox all given and toxe != toxp + dtox; dtox ignored.
Warning: toxe, toxp and dtox all given and toxe != toxp + dtox; dtox igNote: Starting dynamic gmin stepping

Note: Dynamic gmin stepping completed
 Reference value :  3.00000e+01
nored.

No. of Data Rows : 2
                              *INCLUDE 22nm_MGK.pm
                              DC transfer characteristic  Mon Nov 28 09:46:58  2022
--------------------------------------------------------------------------------
Index   temp-sweep      v(node1)        v(a0)           v(a1)           
--------------------------------------------------------------------------------
0	3.000000e+01	1.000000e+00	0.000000e+00	0.000000e+00	
1	1.000000e+02	1.000000e+00	0.000000e+00	0.000000e+00	

                              *INCLUDE 22nm_MGK.pm
                              DC transfer characteristic  Mon Nov 28 09:46:58  2022
--------------------------------------------------------------------------------
Index   temp-sweep      v(a2)           v(a3)           v(b0)           
--------------------------------------------------------------------------------
0	3.000000e+01	0.000000e+00	0.000000e+00	1.000000e+00	
1	1.000000e+02	0.000000e+00	0.000000e+00	1.000000e+00	

                              *INCLUDE 22nm_MGK.pm
                              DC transfer characteristic  Mon Nov 28 09:46:58  2022
--------------------------------------------------------------------------------
Index   temp-sweep      v(b1)           v(b2)           v(b3)           
--------------------------------------------------------------------------------
0	3.000000e+01	1.000000e+00	0.000000e+00	0.000000e+00	
1	1.000000e+02	1.000000e+00	0.000000e+00	0.000000e+00	

                              *INCLUDE 22nm_MGK.pm
                              DC transfer characteristic  Mon Nov 28 09:46:58  2022
--------------------------------------------------------------------------------
Index   temp-sweep      (-v(node1)*i(vd 
--------------------------------------------------------------------------------
0	3.000000e+01	2.391211e-05	
1	1.000000e+02	3.454954e-05	
Doing analysis at TEMP = 27.000000 and TNOM = 27.000000


No. of Data Rows : 2
                              *INCLUDE 22nm_MGK.pm
                              DC transfer characteristic  Mon Nov 28 09:46:58  2022
--------------------------------------------------------------------------------
Index   temp-sweep      v(node1)        v(a0)           v(a1)           
--------------------------------------------------------------------------------
0	3.000000e+01	1.000000e+00	0.000000e+00	0.000000e+00	
1	1.000000e+02	1.000000e+00	0.000000e+00	0.000000e+00	

                              *INCLUDE 22nm_MGK.pm
                              DC transfer characteristic  Mon Nov 28 09:46:58  2022
--------------------------------------------------------------------------------
Index   temp-sweep      v(a2)           v(a3)           v(b0)           
--------------------------------------------------------------------------------
0	3.000000e+01	0.000000e+00	0.000000e+00	1.000000e+00	
1	1.000000e+02	0.000000e+00	0.000000e+00	1.000000e+00	

                              *INCLUDE 22nm_MGK.pm
                              DC transfer characteristic  Mon Nov 28 09:46:58  2022
--------------------------------------------------------------------------------
Index   temp-sweep      v(b1)           v(b2)           v(b3)           
--------------------------------------------------------------------------------
0	3.000000e+01	1.000000e+00	0.000000e+00	1.000000e+00	
1	1.000000e+02	1.000000e+00	0.000000e+00	1.000000e+00	

                              *INCLUDE 22nm_MGK.pm
                              DC transfer characteristic  Mon Nov 28 09:46:58  2022
--------------------------------------------------------------------------------
Index   temp-sweep      (-v(node1)*i(vd 
-----------------------------------------------------Note: Starting dynamic gmin stepping

Note: Dynamic gmin stepping completed
 Reference value :  3.00000e+01
Note: Starting dynamic gmin stepping

Note: Dynamic gmin stepping completed
 Reference value :  3.00000e+01
---------------------------
0	3.000000e+01	2.381561e-05	
1	1.000000e+02	3.461091e-05	
Doing analysis at TEMP = 27.000000 and TNOM = 27.000000


No. of Data Rows : 2
                              *INCLUDE 22nm_MGK.pm
                              DC transfer characteristic  Mon Nov 28 09:46:59  2022
--------------------------------------------------------------------------------
Index   temp-sweep      v(node1)        v(a0)           v(a1)           
--------------------------------------------------------------------------------
0	3.000000e+01	1.000000e+00	0.000000e+00	0.000000e+00	
1	1.000000e+02	1.000000e+00	0.000000e+00	0.000000e+00	

                              *INCLUDE 22nm_MGK.pm
                              DC transfer characteristic  Mon Nov 28 09:46:59  2022
--------------------------------------------------------------------------------
Index   temp-sweep      v(a2)           v(a3)           v(b0)           
--------------------------------------------------------------------------------
0	3.000000e+01	0.000000e+00	0.000000e+00	1.000000e+00	
1	1.000000e+02	0.000000e+00	0.000000e+00	1.000000e+00	

                              *INCLUDE 22nm_MGK.pm
                              DC transfer characteristic  Mon Nov 28 09:46:59  2022
--------------------------------------------------------------------------------
Index   temp-sweep      v(b1)           v(b2)           v(b3)           
--------------------------------------------------------------------------------
0	3.000000e+01	1.000000e+00	1.000000e+00	0.000000e+00	
1	1.000000e+02	1.000000e+00	1.000000e+00	0.000000e+00	

                              *INCLUDE 22nm_MGK.pm
                              DC transfer characteristic  Mon Nov 28 09:46:59  2022
--------------------------------------------------------------------------------
Index   temp-sweep      (-v(node1)*i(vd 
--------------------------------------------------------------------------------
0	3.000000e+01	2.381561e-05	
1	1.000000e+02	3.461091e-05	
Doing analysis at TEMP = 27.000000 and TNOM = 27.000000


No. of Data Rows : 2
                              *INCLUDE 22nm_MGK.pm
                              DC transfer characteristic  Mon Nov 28 09:46:59  2022
--------------------------------------------------------------------------------
Index   temp-sweep      v(node1)        v(a0)           v(a1)           
--------------------------------------------------------------------------------
0	3.000000e+01	1.000000e+00	0.000000e+00	0.000000e+00	
1	1.000000e+02	1.000000e+00	0.000000e+00	0.000000e+00	

                              *INCLUDE 22nm_MGK.pm
                              DC transfer characteristic  Mon Nov 28 09:46:59  2022
--------------------------------------------------------------------------------
Index   temp-sweep      v(a2)           v(a3)           v(b0)           
--------------------------------------------------------------------------------
0	3.000000e+01	0.000000e+00	0.000000e+00	1.000000e+00	
1	1.000000e+02	0.000000e+00	0.000000e+00	1.000000e+00	

                              *INCLUDE 22nm_MGK.pm
                              DC transfer characteristic  Mon Nov 28 09:46:59  2022
--------------------------------------------------------------------------------
Index   temp-sweep      v(b1)           v(b2)     Note: Starting dynamic gmin stepping

Note: Dynamic gmin stepping completed
 Reference value :  3.00000e+01
Note: Starting dynamic gmin stepping

Note: Dynamic gmin stepping completed
 Reference value :  3.00000e+01
      v(b3)           
--------------------------------------------------------------------------------
0	3.000000e+01	1.000000e+00	1.000000e+00	1.000000e+00	
1	1.000000e+02	1.000000e+00	1.000000e+00	1.000000e+00	

                              *INCLUDE 22nm_MGK.pm
                              DC transfer characteristic  Mon Nov 28 09:46:59  2022
--------------------------------------------------------------------------------
Index   temp-sweep      (-v(node1)*i(vd 
--------------------------------------------------------------------------------
0	3.000000e+01	2.371911e-05	
1	1.000000e+02	3.467227e-05	
Doing analysis at TEMP = 27.000000 and TNOM = 27.000000


No. of Data Rows : 2
                              *INCLUDE 22nm_MGK.pm
                              DC transfer characteristic  Mon Nov 28 09:47:00  2022
--------------------------------------------------------------------------------
Index   temp-sweep      v(node1)        v(a0)           v(a1)           
--------------------------------------------------------------------------------
0	3.000000e+01	1.000000e+00	0.000000e+00	0.000000e+00	
1	1.000000e+02	1.000000e+00	0.000000e+00	0.000000e+00	

                              *INCLUDE 22nm_MGK.pm
                              DC transfer characteristic  Mon Nov 28 09:47:00  2022
--------------------------------------------------------------------------------
Index   temp-sweep      v(a2)           v(a3)           v(b0)           
--------------------------------------------------------------------------------
0	3.000000e+01	0.000000e+00	1.000000e+00	0.000000e+00	
1	1.000000e+02	0.000000e+00	1.000000e+00	0.000000e+00	

                              *INCLUDE 22nm_MGK.pm
                              DC transfer characteristic  Mon Nov 28 09:47:00  2022
--------------------------------------------------------------------------------
Index   temp-sweep      v(b1)           v(b2)           v(b3)           
--------------------------------------------------------------------------------
0	3.000000e+01	0.000000e+00	0.000000e+00	0.000000e+00	
1	1.000000e+02	0.000000e+00	0.000000e+00	0.000000e+00	

                              *INCLUDE 22nm_MGK.pm
                              DC transfer characteristic  Mon Nov 28 09:47:00  2022
--------------------------------------------------------------------------------
Index   temp-sweep      (-v(node1)*i(vd 
--------------------------------------------------------------------------------
0	3.000000e+01	2.407850e-05	
1	1.000000e+02	3.469502e-05	
Doing analysis at TEMP = 27.000000 and TNOM = 27.000000


No. of Data Rows : 2
                              *INCLUDE 22nm_MGK.pm
                              DC transfer characteristic  Mon Nov 28 09:47:00  2022
--------------------------------------------------------------------------------
Index   temp-sweep      v(node1)        v(a0)           v(a1)           
--------------------------------------------------------------------------------
0	3.000000e+01	1.000000e+00	0.000000e+00	0.000000e+00	
1	1.000000e+02	1.000000e+00	0.000000e+00	0.000000e+00	

                              *INCLUDE 22nm_MGK.pm
                              DC transfer characteristic  Mon Nov 28 09:47:00  2022
--------------------------------------------------------------------------------
Index Note: Starting dynamic gmin stepping
Trying gmin =   1.0000E-03 Note: One successful gmin step
Trying gmin =   1.0000E-04 Note: One successful gmin step
Trying gmin =   1.0000E-05 Note: One successful gmin step
Trying gmin =   1.0000E-06 Warning: Further gmin increment
Trying gmin =   5.6234E-06 Note: One successful gmin step
Trying gmin =   2.3714E-06 Note: One successful gmin step
Trying gmin =   1.0000E-06 Note: One successful gmin step
Trying gmin =   2.7384E-07 Note: One successful gmin step
Trying gmin =   3.9242E-08 Note: One successful gmin step
Trying gmin =   3.9242E-09 Note: One successful gmin step
Trying gmin =   3.9242E-10 Note: One successful gmin step
Trying gmin =   3.9242E-11 Note: One successful gmin step
Trying gmin =   3.9242E-12 Note: One successful gmin step
Trying gmin =   1.0000E-12 Note: One successful gmin step
Note: Dynamic gmin stepping completed
 Reference value :  3.00000e+01
Note: Starting dynamic gmin stepping

Note: Dynamic gmin stepping completed
 Reference value :  3.00000e+01
  temp-sweep      v(a2)           v(a3)           v(b0)           
--------------------------------------------------------------------------------
0	3.000000e+01	0.000000e+00	1.000000e+00	0.000000e+00	
1	1.000000e+02	0.000000e+00	1.000000e+00	0.000000e+00	

                              *INCLUDE 22nm_MGK.pm
                              DC transfer characteristic  Mon Nov 28 09:47:00  2022
--------------------------------------------------------------------------------
Index   temp-sweep      v(b1)           v(b2)           v(b3)           
--------------------------------------------------------------------------------
0	3.000000e+01	0.000000e+00	0.000000e+00	1.000000e+00	
1	1.000000e+02	0.000000e+00	0.000000e+00	1.000000e+00	

                              *INCLUDE 22nm_MGK.pm
                              DC transfer characteristic  Mon Nov 28 09:47:00  2022
--------------------------------------------------------------------------------
Index   temp-sweep      (-v(node1)*i(vd 
--------------------------------------------------------------------------------
0	3.000000e+01	2.398969e-05	
1	1.000000e+02	3.480018e-05	
Doing analysis at TEMP = 27.000000 and TNOM = 27.000000


No. of Data Rows : 2
                              *INCLUDE 22nm_MGK.pm
                              DC transfer characteristic  Mon Nov 28 09:47:00  2022
--------------------------------------------------------------------------------
Index   temp-sweep      v(node1)        v(a0)           v(a1)           
--------------------------------------------------------------------------------
0	3.000000e+01	1.000000e+00	0.000000e+00	0.000000e+00	
1	1.000000e+02	1.000000e+00	0.000000e+00	0.000000e+00	

                              *INCLUDE 22nm_MGK.pm
                              DC transfer characteristic  Mon Nov 28 09:47:00  2022
--------------------------------------------------------------------------------
Index   temp-sweep      v(a2)           v(a3)           v(b0)           
--------------------------------------------------------------------------------
0	3.000000e+01	0.000000e+00	1.000000e+00	0.000000e+00	
1	1.000000e+02	0.000000e+00	1.000000e+00	0.000000e+00	

                              *INCLUDE 22nm_MGK.pm
                              DC transfer characteristic  Mon Nov 28 09:47:00  2022
--------------------------------------------------------------------------------
Index   temp-sweep      v(b1)           v(b2)           v(b3)           
--------------------------------------------------------------------------------
0	3.000000e+01	0.000000e+00	1.000000e+00	0.000000e+00	
1	1.000000e+02	0.000000e+00	1.000000e+00	0.000000e+00	

                              *INCLUDE 22nm_MGK.pm
                              DC transfer characteristic  Mon Nov 28 09:47:00  2022
--------------------------------------------------------------------------------
Index   temp-sweep      (-v(node1)*i(vd 
--------------------------------------------------------------------------------
0	3.000000e+01	2.399373e-05	
1	1.000000e+02	3.492402e-05	
Doing analysis at TEMP = 27.000000 and TNOM = 27.000000


No. of Data Rows : 2
                              *INCLUDE 22nm_MGK.pm
                              DC transfer characteristic  Mon Nov 28 09:47:00  2022
-------------------------------------------Note: Starting dynamic gmin stepping


Note: Dynamic gmin stepping completed
 Reference value :  3.00000e+01
-------------------------------------
Index   temp-sweep      v(node1)        v(a0)           v(a1)           
--------------------------------------------------------------------------------
0	3.000000e+01	1.000000e+00	0.000000e+00	0.000000e+00	
1	1.000000e+02	1.000000e+00	0.000000e+00	0.000000e+00	

                              *INCLUDE 22nm_MGK.pm
                              DC transfer characteristic  Mon Nov 28 09:47:00  2022
--------------------------------------------------------------------------------
Index   temp-sweep      v(a2)           v(a3)           v(b0)           
--------------------------------------------------------------------------------
0	3.000000e+01	0.000000e+00	1.000000e+00	0.000000e+00	
1	1.000000e+02	0.000000e+00	1.000000e+00	0.000000e+00	

                              *INCLUDE 22nm_MGK.pm
                              DC transfer characteristic  Mon Nov 28 09:47:00  2022
--------------------------------------------------------------------------------
Index   temp-sweep      v(b1)           v(b2)           v(b3)           
--------------------------------------------------------------------------------
0	3.000000e+01	0.000000e+00	1.000000e+00	1.000000e+00	
1	1.000000e+02	0.000000e+00	1.000000e+00	1.000000e+00	

                              *INCLUDE 22nm_MGK.pm
                              DC transfer characteristic  Mon Nov 28 09:47:00  2022
--------------------------------------------------------------------------------
Index   temp-sweep      (-v(node1)*i(vd 
--------------------------------------------------------------------------------
0	3.000000e+01	2.390494e-05	
1	1.000000e+02	3.502956e-05	
Doing analysis at TEMP = 27.000000 and TNOM = 27.000000


No. of Data Rows : 2
                              *INCLUDE 22nm_MGK.pm
                              DC transfer characteristic  Mon Nov 28 09:47:01  2022
--------------------------------------------------------------------------------
Index   temp-sweep      v(node1)        v(a0)           v(a1)           
--------------------------------------------------------------------------------
0	3.000000e+01	1.000000e+00	0.000000e+00	0.000000e+00	
1	1.000000e+02	1.000000e+00	0.000000e+00	0.000000e+00	

                              *INCLUDE 22nm_MGK.pm
                              DC transfer characteristic  Mon Nov 28 09:47:01  2022
--------------------------------------------------------------------------------
Index   temp-sweep      v(a2)           v(a3)           v(b0)           
--------------------------------------------------------------------------------
0	3.000000e+01	0.000000e+00	1.000000e+00	0.000000e+00	
1	1.000000e+02	0.000000e+00	1.000000e+00	0.000000e+00	

                              *INCLUDE 22nm_MGK.pm
                              DC transfer characteristic  Mon Nov 28 09:47:01  2022
--------------------------------------------------------------------------------
Index   temp-sweep      v(b1)           v(b2)           v(b3)           
--------------------------------------------------------------------------------
0	3.000000e+01	1.000000e+00	0.000000e+00	0.000000e+00	
1	1.000000e+02	1.000000e+00	0.000000e+00	0.000000e+00	

                              *INCLUDE 22nm_MGK.pm
                              DC transfer characteristic  Mon Nov 28 09:47:01  2022
--------------------------------------------------------------------------------
Index   temp-sweep      (-v(node1)*i(vd 
--------------------------------------------------------------------------------
0	3.000000e+01	2.444760e-05	
1	1.000000e+02	3.572141e-05	
Doing analysis at TEMP = 27.000000 and TNOM = 27.000000

Warning: toxe, toxp and dtox all given and toxe != toxp + dtox; Note: Starting dynamic gmin stepping


Note: Dynamic gmin stepping completed
 Reference value :  3.00000e+01
Note: Starting dynamic gmin stepping

Note: Dynamic gmin stepping completed
 Reference value :  3.00000e+01
dtox ignored.
Warning: toxe, toxp and dtox all given and toxe != toxp + dtox; dtox ignored.
Warning: toxe, toxp and dtox all given and toxe != toxp + dtox; dtox ignored.
Warning: toxe, toxp and dtox all given and toxe != toxp + dtox; dtox ignored.
Warning: toxe, toxp and dtox all given and toxe != toxp + dtox; dtox ignored.

No. of Data Rows : 2
                              *INCLUDE 22nm_MGK.pm
                              DC transfer characteristic  Mon Nov 28 09:47:01  2022
--------------------------------------------------------------------------------
Index   temp-sweep      v(node1)        v(a0)           v(a1)           
--------------------------------------------------------------------------------
0	3.000000e+01	1.000000e+00	0.000000e+00	0.000000e+00	
1	1.000000e+02	1.000000e+00	0.000000e+00	0.000000e+00	

                              *INCLUDE 22nm_MGK.pm
                              DC transfer characteristic  Mon Nov 28 09:47:01  2022
--------------------------------------------------------------------------------
Index   temp-sweep      v(a2)           v(a3)           v(b0)           
--------------------------------------------------------------------------------
0	3.000000e+01	0.000000e+00	1.000000e+00	0.000000e+00	
1	1.000000e+02	0.000000e+00	1.000000e+00	0.000000e+00	

                              *INCLUDE 22nm_MGK.pm
                              DC transfer characteristic  Mon Nov 28 09:47:01  2022
--------------------------------------------------------------------------------
Index   temp-sweep      v(b1)           v(b2)           v(b3)           
--------------------------------------------------------------------------------
0	3.000000e+01	1.000000e+00	0.000000e+00	1.000000e+00	
1	1.000000e+02	1.000000e+00	0.000000e+00	1.000000e+00	

                              *INCLUDE 22nm_MGK.pm
                              DC transfer characteristic  Mon Nov 28 09:47:01  2022
--------------------------------------------------------------------------------
Index   temp-sweep      (-v(node1)*i(vd 
--------------------------------------------------------------------------------
0	3.000000e+01	2.435880e-05	
1	1.000000e+02	3.582686e-05	
Doing analysis at TEMP = 27.000000 and TNOM = 27.000000


No. of Data Rows : 2
                              *INCLUDE 22nm_MGK.pm
                              DC transfer characteristic  Mon Nov 28 09:47:02  2022
--------------------------------------------------------------------------------
Index   temp-sweep      v(node1)        v(a0)           v(a1)           
--------------------------------------------------------------------------------
0	3.000000e+01	1.000000e+00	0.000000e+00	0.000000e+00	
1	1.000000e+02	1.000000e+00	0.000000e+00	0.000000e+00	

                              *INCLUDE 22nm_MGK.pm
                              DC transfer characteristic  Mon Nov 28 09:47:02  2022
--------------------------------------------------------------------------------
Index   temp-sweep      v(a2)           v(a3)           v(b0)           
--------------------------------------------------------------------------------
0	3.000000e+01	0.000000e+00	1.000000e+00	0.000000e+00	
1	1.000000e+02	0.000000e+00	1.000000e+00	0.000000e+00	

                              *INCLUDE 22nm_MGK.pm
                              DC transfer characteristic  Mon Nov 28 09:47:02  2022
--------------------------------------------------------------------------------
Index   temp-sweep      v(b1)           v(b2)           v(b3)           
--------------------------------------------------------------------------------
0	3.000000e+01	1.000000e+00	1.000000e+00	0.000000e+00	
1	1.000000e+02	1.000000e+00	1.000000e+00	0.00000Note: Starting dynamic gmin stepping

Note: Dynamic gmin stepping completed
 Reference value :  3.00000e+01
Note: Starting dynamic gmin stepping

Note: Dynamic gmin stepping completed
 Reference value :  3.00000e+01
0e+00	

                              *INCLUDE 22nm_MGK.pm
                              DC transfer characteristic  Mon Nov 28 09:47:02  2022
--------------------------------------------------------------------------------
Index   temp-sweep      (-v(node1)*i(vd 
--------------------------------------------------------------------------------
0	3.000000e+01	2.432606e-05	
1	1.000000e+02	3.559615e-05	
Doing analysis at TEMP = 27.000000 and TNOM = 27.000000


No. of Data Rows : 2
                              *INCLUDE 22nm_MGK.pm
                              DC transfer characteristic  Mon Nov 28 09:47:02  2022
--------------------------------------------------------------------------------
Index   temp-sweep      v(node1)        v(a0)           v(a1)           
--------------------------------------------------------------------------------
0	3.000000e+01	1.000000e+00	0.000000e+00	0.000000e+00	
1	1.000000e+02	1.000000e+00	0.000000e+00	0.000000e+00	

                              *INCLUDE 22nm_MGK.pm
                              DC transfer characteristic  Mon Nov 28 09:47:02  2022
--------------------------------------------------------------------------------
Index   temp-sweep      v(a2)           v(a3)           v(b0)           
--------------------------------------------------------------------------------
0	3.000000e+01	0.000000e+00	1.000000e+00	0.000000e+00	
1	1.000000e+02	0.000000e+00	1.000000e+00	0.000000e+00	

                              *INCLUDE 22nm_MGK.pm
                              DC transfer characteristic  Mon Nov 28 09:47:02  2022
--------------------------------------------------------------------------------
Index   temp-sweep      v(b1)           v(b2)           v(b3)           
--------------------------------------------------------------------------------
0	3.000000e+01	1.000000e+00	1.000000e+00	1.000000e+00	
1	1.000000e+02	1.000000e+00	1.000000e+00	1.000000e+00	

                              *INCLUDE 22nm_MGK.pm
                              DC transfer characteristic  Mon Nov 28 09:47:02  2022
--------------------------------------------------------------------------------
Index   temp-sweep      (-v(node1)*i(vd 
--------------------------------------------------------------------------------
0	3.000000e+01	2.420438e-05	
1	1.000000e+02	3.546912e-05	
Doing analysis at TEMP = 27.000000 and TNOM = 27.000000


No. of Data Rows : 2
                              *INCLUDE 22nm_MGK.pm
                              DC transfer characteristic  Mon Nov 28 09:47:03  2022
--------------------------------------------------------------------------------
Index   temp-sweep      v(node1)        v(a0)           v(a1)           
--------------------------------------------------------------------------------
0	3.000000e+01	1.000000e+00	0.000000e+00	0.000000e+00	
1	1.000000e+02	1.000000e+00	0.000000e+00	0.000000e+00	

                              *INCLUDE 22nm_MGK.pm
                              DC transfer characteristic  Mon Nov 28 09:47:03  2022
--------------------------------------------------------------------------------
Index   temp-sweep      v(a2)           v(a3)           v(b0)           
--------------------------------------------------------------------------------
0	3.000000e+01	0.000000e+00	1.000000e+00	1.000000e+00	
1	1.Note: Starting dynamic gmin stepping

Note: Dynamic gmin stepping completed
 Reference value :  3.00000e+01
Note: Starting dynamic gmin stepping
Trying gmin =   1.0000E-03 Note: One successful gmin step
Trying gmin =   1.0000E-04 Note: One successful gmin step
Trying gmin =   1.0000E-05 Note: One successful gmin step
Trying gmin =   1.0000E-06 Warning: Further gmin increment
Trying gmin =   5.6234E-06 Note: One successful gmin step
Trying gmin =   3.1623E-06 Note: One successful gmin step
Trying gmin =   1.7783E-06 Note: One successful gmin step
Trying gmin =   7.4989E-07 Note: One successful gmin step
Trying gmin =   2.0535E-07 Note: One successful gmin step
Trying gmin =   2.9427E-08 Note: One successful gmin step
Trying gmin =   2.9427E-09 Note: One successful gmin step
Trying gmin =   2.9427E-10 Warning: Further gmin increment
Trying gmin =   1.6548E-09 Warning: Further gmin increment
Trying gmin =   2.5483E-09 Warning: Further gmin increment
Trying gmin =   2.8387E-09 Note: One successful gmin step
Trying gmin =   2.7384E-09 Note: One successful gmin step
Trying gmin =   2.5946E-09 Note: One successful gmin step
Trying gmin =   2.3928E-09 Note: One successful gmin step
Trying gmin =   2.1192E-09 Note: One successful gmin step
Trying gmin =   1.7663E-09 Note: One successful gmin step
Trying gmin =   1.3441E-09 Note: One successful gmin step
Trying gmin =   8.9215E-10 Note: One successful gmin step
Trying gmin =   4.8247E-10 Note: One successful gmin step
Trying gmin =   1.9188E-10 Note: One successful gmin step
Trying gmin =   4.8122E-11 Note: One successful gmin step
Trying gmin =   6.0440E-12 Note: One successful gmin step
Trying gmin =   1.0000E-12 Note: One successful gmin step
Note: Dynamic gmin stepping completed
 Reference value :  3.00000e+01
000000e+02	0.000000e+00	1.000000e+00	1.000000e+00	

                              *INCLUDE 22nm_MGK.pm
                              DC transfer characteristic  Mon Nov 28 09:47:03  2022
--------------------------------------------------------------------------------
Index   temp-sweep      v(b1)           v(b2)           v(b3)           
--------------------------------------------------------------------------------
0	3.000000e+01	0.000000e+00	0.000000e+00	0.000000e+00	
1	1.000000e+02	0.000000e+00	0.000000e+00	0.000000e+00	

                              *INCLUDE 22nm_MGK.pm
                              DC transfer characteristic  Mon Nov 28 09:47:03  2022
--------------------------------------------------------------------------------
Index   temp-sweep      (-v(node1)*i(vd 
--------------------------------------------------------------------------------
0	3.000000e+01	2.391979e-05	
1	1.000000e+02	3.485180e-05	
Doing analysis at TEMP = 27.000000 and TNOM = 27.000000


No. of Data Rows : 2
                              *INCLUDE 22nm_MGK.pm
                              DC transfer characteristic  Mon Nov 28 09:47:03  2022
--------------------------------------------------------------------------------
Index   temp-sweep      v(node1)        v(a0)           v(a1)           
--------------------------------------------------------------------------------
0	3.000000e+01	1.000000e+00	0.000000e+00	0.000000e+00	
1	1.000000e+02	1.000000e+00	0.000000e+00	0.000000e+00	

                              *INCLUDE 22nm_MGK.pm
                              DC transfer characteristic  Mon Nov 28 09:47:03  2022
--------------------------------------------------------------------------------
Index   temp-sweep      v(a2)           v(a3)           v(b0)           
--------------------------------------------------------------------------------
0	3.000000e+01	0.000000e+00	1.000000e+00	1.000000e+00	
1	1.000000e+02	0.000000e+00	1.000000e+00	1.000000e+00	

                              *INCLUDE 22nm_MGK.pm
                              DC transfer characteristic  Mon Nov 28 09:47:03  2022
--------------------------------------------------------------------------------
Index   temp-sweep      v(b1)           v(b2)           v(b3)           
--------------------------------------------------------------------------------
0	3.000000e+01	0.000000e+00	0.000000e+00	1.000000e+00	
1	1.000000e+02	0.000000e+00	0.000000e+00	1.000000e+00	

                              *INCLUDE 22nm_MGK.pm
                              DC transfer characteristic  Mon Nov 28 09:47:03  2022
--------------------------------------------------------------------------------
Index   temp-sweep      (-v(node1)*i(vd 
--------------------------------------------------------------------------------
0	3.000000e+01	2.383098e-05	
1	1.000000e+02	3.495701e-05	
Doing analysis at TEMP = 27.000000 and TNOM = 27.000000


No. of Data Rows : 2
                              *INCLUDE 22nm_MGK.pm
                              DC transfer characteristic  Mon Nov 28 09:47:03  2022
--------------------------------------------------------------------------------
Index   temp-sweep      v(node1)        v(a0)           v(a1)           
--------------------------------------------------------------------------------
0	3.000000e+01	Note: Starting dynamic gmin stepping
Trying gmin =   1.0000E-03 Note: One successful gmin step
Trying gmin =   1.0000E-04 Note: One successful gmin step
Trying gmin =   1.0000E-05 Note: One successful gmin step
Trying gmin =   1.0000E-06 Warning: Further gmin increment
Trying gmin =   5.6234E-06 Note: One successful gmin step
Trying gmin =   3.1623E-06 Note: One successful gmin step
Trying gmin =   1.7783E-06 Note: One successful gmin step
Trying gmin =   7.4989E-07 Note: One successful gmin step
Trying gmin =   2.0535E-07 Note: One successful gmin step
Trying gmin =   2.9427E-08 Note: One successful gmin step
Trying gmin =   2.9427E-09 Note: One successful gmin step
Trying gmin =   2.9427E-10 Warning: Further gmin increment
Trying gmin =   1.6548E-09 Warning: Further gmin increment
Trying gmin =   2.5483E-09 Warning: Further gmin increment
Trying gmin =   2.8387E-09 Note: One successful gmin step
Trying gmin =   2.7384E-09 Note: One successful gmin step
Trying gmin =   2.5946E-09 Note: One successful gmin step
Trying gmin =   2.3928E-09 Note: One successful gmin step
Trying gmin =   2.1192E-09 Note: One successful gmin step
Trying gmin =   1.7663E-09 Note: One successful gmin step
Trying gmin =   1.3441E-09 Note: One successful gmin step
Trying gmin =   8.9215E-10 Note: One successful gmin step
Trying gmin =   4.8247E-10 Note: One successful gmin step
Trying gmin =   1.9188E-10 Note: One successful gmin step
Trying gmin =   4.8122E-11 Note: One successful gmin step
Trying gmin =   6.0440E-12 Note: One successful gmin step
Trying gmin =   1.0000E-12 Note: One successful gmin step
Note: Dynamic gmin stepping completed
 Reference value :  3.00000e+01
Note: Starting dynamic gmin stepping


Note: Dynamic gmin stepping completed
 Reference value :  3.00000e+01
1.000000e+00	0.000000e+00	0.000000e+00	
1	1.000000e+02	1.000000e+00	0.000000e+00	0.000000e+00	

                              *INCLUDE 22nm_MGK.pm
                              DC transfer characteristic  Mon Nov 28 09:47:03  2022
--------------------------------------------------------------------------------
Index   temp-sweep      v(a2)           v(a3)           v(b0)           
--------------------------------------------------------------------------------
0	3.000000e+01	0.000000e+00	1.000000e+00	1.000000e+00	
1	1.000000e+02	0.000000e+00	1.000000e+00	1.000000e+00	

                              *INCLUDE 22nm_MGK.pm
                              DC transfer characteristic  Mon Nov 28 09:47:03  2022
--------------------------------------------------------------------------------
Index   temp-sweep      v(b1)           v(b2)           v(b3)           
--------------------------------------------------------------------------------
0	3.000000e+01	0.000000e+00	1.000000e+00	0.000000e+00	
1	1.000000e+02	0.000000e+00	1.000000e+00	0.000000e+00	

                              *INCLUDE 22nm_MGK.pm
                              DC transfer characteristic  Mon Nov 28 09:47:03  2022
--------------------------------------------------------------------------------
Index   temp-sweep      (-v(node1)*i(vd 
--------------------------------------------------------------------------------
0	3.000000e+01	2.383502e-05	
1	1.000000e+02	3.508084e-05	
Doing analysis at TEMP = 27.000000 and TNOM = 27.000000


No. of Data Rows : 2
                              *INCLUDE 22nm_MGK.pm
                              DC transfer characteristic  Mon Nov 28 09:47:04  2022
--------------------------------------------------------------------------------
Index   temp-sweep      v(node1)        v(a0)           v(a1)           
--------------------------------------------------------------------------------
0	3.000000e+01	1.000000e+00	0.000000e+00	0.000000e+00	
1	1.000000e+02	1.000000e+00	0.000000e+00	0.000000e+00	

                              *INCLUDE 22nm_MGK.pm
                              DC transfer characteristic  Mon Nov 28 09:47:04  2022
--------------------------------------------------------------------------------
Index   temp-sweep      v(a2)           v(a3)           v(b0)           
--------------------------------------------------------------------------------
0	3.000000e+01	0.000000e+00	1.000000e+00	1.000000e+00	
1	1.000000e+02	0.000000e+00	1.000000e+00	1.000000e+00	

                              *INCLUDE 22nm_MGK.pm
                              DC transfer characteristic  Mon Nov 28 09:47:04  2022
--------------------------------------------------------------------------------
Index   temp-sweep      v(b1)           v(b2)           v(b3)           
--------------------------------------------------------------------------------
0	3.000000e+01	0.000000e+00	1.000000e+00	1.000000e+00	
1	1.000000e+02	0.000000e+00	1.000000e+00	1.000000e+00	

                              *INCLUDE 22nm_MGK.pm
                              DC transfer characteristic  Mon Nov 28 09:47:04  2022
--------------------------------------------------------------------------------
Index   temp-sweep      (-v(node1)*i(vd 
--------------------------------------------------------------------------------
0	3.000000e+01	2.374623e-05	
1	1.000000e+02	3.518643e-05	
Doing analysis at TEMP = 27.000000 and TNOM = 27.000000

Warning: toxe, toxp and dtox all given and toxe != toxp + dtox; dtox ignored.
Warning: toxe, toxp and dtox all given and toxe != toxp + dtox; dtox ignored.
Warning: toxe, toxp and dtox all given and toxe != toxp + dtox; dtox ignored.
Warning: toxe, toxp and dtox all giveNote: Starting dynamic gmin stepping
Trying gmin =   1.0000E-03 Note: One successful gmin step
Trying gmin =   1.0000E-04 Note: One successful gmin step
Trying gmin =   1.0000E-05 Note: One successful gmin step
Trying gmin =   1.0000E-06 Warning: Further gmin increment
Trying gmin =   5.6234E-06 Warning: Further gmin increment
Trying gmin =   8.6596E-06 Note: One successful gmin step
Trying gmin =   6.9783E-06 Note: One successful gmin step
Trying gmin =   5.0481E-06 Warning: Further gmin increment
Trying gmin =   6.4357E-06 Note: One successful gmin step
Trying gmin =   5.6998E-06 Note: One successful gmin step
Trying gmin =   5.0481E-06 Note: One successful gmin step
Trying gmin =   4.4709E-06 Note: One successful gmin step
Trying gmin =   3.7264E-06 Note: One successful gmin step
Trying gmin =   2.8355E-06 Note: One successful gmin step
Trying gmin =   1.8822E-06 Note: One successful gmin step
Trying gmin =   1.0179E-06 Note: One successful gmin step
Trying gmin =   4.0480E-07 Note: One successful gmin step
Trying gmin =   1.0152E-07 Note: One successful gmin step
Trying gmin =   1.2751E-08 Note: One successful gmin step
Trying gmin =   1.2751E-09 Warning: Further gmin increment
Trying gmin =   7.1704E-09 Note: One successful gmin step
Trying gmin =   3.0237E-09 Note: One successful gmin step
Trying gmin =   8.2803E-10 Warning: Further gmin increment
Trying gmin =   2.1874E-09 Warning: Further gmin increment
Trying gmin =   2.7886E-09 Note: One successful gmin step
Trying gmin =   2.4698E-09 Note: One successful gmin step
Trying gmin =   2.0585E-09 Note: One successful gmin step
Trying gmin =   1.7157E-09 Note: One successful gmin step
Trying gmin =   1.3056E-09 Note: One successful gmin step
Trying gmin =   8.6660E-10 Note: One successful gmin step
Trying gmin =   4.6865E-10 Note: One successful gmin step
Trying gmin =   1.8638E-10 Note: One successful gmin step
Trying gmin =   4.6744E-11 Note: One successful gmin step
Trying gmin =   5.8709E-12 Note: One successful gmin step
Trying gmin =   1.0000E-12 Note: One successful gmin step
Note: Dynamic gmin stepping completed
 Reference value :  3.00000e+01
n and toxe != toxp + dtox; dtox ignored.
Warning: toxe, toxp and dtox all given and toxe != toxp + dtox; dtox ignored.

No. of Data Rows : 2
                              *INCLUDE 22nm_MGK.pm
                              DC transfer characteristic  Mon Nov 28 09:47:04  2022
--------------------------------------------------------------------------------
Index   temp-sweep      v(node1)        v(a0)           v(a1)           
--------------------------------------------------------------------------------
0	3.000000e+01	1.000000e+00	0.000000e+00	0.000000e+00	
1	1.000000e+02	1.000000e+00	0.000000e+00	0.000000e+00	

                              *INCLUDE 22nm_MGK.pm
                              DC transfer characteristic  Mon Nov 28 09:47:04  2022
--------------------------------------------------------------------------------
Index   temp-sweep      v(a2)           v(a3)           v(b0)           
--------------------------------------------------------------------------------
0	3.000000e+01	0.000000e+00	1.000000e+00	1.000000e+00	
1	1.000000e+02	0.000000e+00	1.000000e+00	1.000000e+00	

                              *INCLUDE 22nm_MGK.pm
                              DC transfer characteristic  Mon Nov 28 09:47:04  2022
--------------------------------------------------------------------------------
Index   temp-sweep      v(b1)           v(b2)           v(b3)           
--------------------------------------------------------------------------------
0	3.000000e+01	1.000000e+00	0.000000e+00	0.000000e+00	
1	1.000000e+02	1.000000e+00	0.000000e+00	0.000000e+00	

                              *INCLUDE 22nm_MGK.pm
                              DC transfer characteristic  Mon Nov 28 09:47:04  2022
--------------------------------------------------------------------------------
Index   temp-sweep      (-v(node1)*i(vd 
--------------------------------------------------------------------------------
0	3.000000e+01	2.428886e-05	
1	1.000000e+02	3.587781e-05	
Doing analysis at TEMP = 27.000000 and TNOM = 27.000000


No. of Data Rows : 2
                              *INCLUDE 22nm_MGK.pm
                              DC transfer characteristic  Mon Nov 28 09:47:05  2022
--------------------------------------------------------------------------------
Index   temp-sweep      v(node1)        v(a0)           v(a1)           
--------------------------------------------------------------------------------
0	3.000000e+01	1.000000e+00	0.000000e+00	0.000000e+00	
1	1.000000e+02	1.000000e+00	0.000000e+00	0.000000e+00	

                              *INCLUDE 22nm_MGK.pm
                              DC transfer characteristic  Mon Nov 28 09:47:05  2022
--------------------------------------------------------------------------------
Index   temp-sweep      v(a2)           v(a3)           v(b0)           
--------------------------------------------------------------------------------
0	3.000000e+01	0.000000e+00	1.000000e+00	1.000000e+00	
1	1.000000e+02	0.000000e+00	1.000000e+00	1.000000e+00	

                              *INCLUDE 22nm_MGK.pm
                              DC transfer characteristic  Mon Nov 28 09:47:05  2022
--------------------------------------------------------------------------------
Index   temp-sweep      v(b1)           v(b2)           v(b3)           
--------------------------------------------------------------------------------
0	3.000000e+01	1.000000e+00	0.000000e+00	1.000000e+00	
1	1.000000e+02	1.000000e+00	0.000000e+00	1.000000e+00	

                              *INCLUDE 22nm_MGK.pm
                              DC transfer characteristic  Mon Nov 28 09:47:05  2022
---------------------------------------------------------------Note: Starting dynamic gmin stepping
Trying gmin =   1.0000E-03 Note: One successful gmin step
Trying gmin =   1.0000E-04 Note: One successful gmin step
Trying gmin =   1.0000E-05 Note: One successful gmin step
Trying gmin =   1.0000E-06 Warning: Further gmin increment
Trying gmin =   5.6234E-06 Note: One successful gmin step
Trying gmin =   3.1623E-06 Warning: Further gmin increment
Trying gmin =   4.8697E-06 Note: One successful gmin step
Trying gmin =   3.9242E-06 Note: One successful gmin step
Trying gmin =   2.8387E-06 Note: One successful gmin step
Trying gmin =   1.7466E-06 Note: One successful gmin step
Trying gmin =   8.4291E-07 Note: One successful gmin step
Trying gmin =   2.8260E-07 Note: One successful gmin step
Trying gmin =   5.4860E-08 Note: One successful gmin step
Trying gmin =   5.4860E-09 Note: One successful gmin step
Trying gmin =   5.4860E-10 Warning: Further gmin increment
Trying gmin =   3.0850E-09 Note: One successful gmin step
Trying gmin =   1.3009E-09 Note: One successful gmin step
Trying gmin =   5.4860E-10 Note: One successful gmin step
Trying gmin =   1.5023E-10 Note: One successful gmin step
Trying gmin =   2.1528E-11 Note: One successful gmin step
Trying gmin =   2.1528E-12 Note: One successful gmin step
Trying gmin =   1.0000E-12 Note: One successful gmin step
Note: Dynamic gmin stepping completed
 Reference value :  3.00000e+01
Note: Starting dynamic gmin stepping
Trying gmin =   1.0000E-03 Note: One successful gmin step
Trying gmin =   1.0000E-04 Note: One successful gmin step
Trying gmin =   1.0000E-05 Note: One successful gmin step
Trying gmin =   1.0000E-06 Warning: Further gmin increment
Trying gmin =   5.6234E-06 Note: One successful gmin step
Trying gmin =   3.1623E-06 Warning: Further gmin increment
Trying gmin =   4.8697E-06 Note: One successful gmin step
Trying gmin =   3.9242E-06 Note: One successful gmin step
Trying gmin =   2.8387E-06 Note: One successful gmin step
Trying gmin =   1.7466E-06 Note: One successful gmin step
Trying gmin =   8.4291E-07 Note: One successful gmin step
Trying gmin =   2.8260E-07 Note: One successful gmin step
Trying gmin =   5.4860E-08 Note: One successful gmin step
Trying gmin =   5.4860E-09 Note: One successful gmin step
Trying gmin =   5.4860E-10 Warning: Further gmin increment
Trying gmin =   3.0850E-09 Note: One successful gmin step
Trying gmin =   1.3009E-09 Note: One successful gmin step
Trying gmin =   5.4860E-10 Note: One successful gmin step
Trying gmin =   1.5023E-10 Note: One successful gmin step
Trying gmin =   2.1528E-11 Note: One successful gmin step
Trying gmin =   2.1528E-12 Note: One successful gmin step
Trying gmin =   1.0000E-12 Note: One successful gmin step
Note: Dynamic gmin stepping completed
 Reference value :  3.00000e+01
-----------------
Index   temp-sweep      (-v(node1)*i(vd 
--------------------------------------------------------------------------------
0	3.000000e+01	2.420007e-05	
1	1.000000e+02	3.598331e-05	
Doing analysis at TEMP = 27.000000 and TNOM = 27.000000


No. of Data Rows : 2
                              *INCLUDE 22nm_MGK.pm
                              DC transfer characteristic  Mon Nov 28 09:47:05  2022
--------------------------------------------------------------------------------
Index   temp-sweep      v(node1)        v(a0)           v(a1)           
--------------------------------------------------------------------------------
0	3.000000e+01	1.000000e+00	0.000000e+00	0.000000e+00	
1	1.000000e+02	1.000000e+00	0.000000e+00	0.000000e+00	

                              *INCLUDE 22nm_MGK.pm
                              DC transfer characteristic  Mon Nov 28 09:47:05  2022
--------------------------------------------------------------------------------
Index   temp-sweep      v(a2)           v(a3)           v(b0)           
--------------------------------------------------------------------------------
0	3.000000e+01	0.000000e+00	1.000000e+00	1.000000e+00	
1	1.000000e+02	0.000000e+00	1.000000e+00	1.000000e+00	

                              *INCLUDE 22nm_MGK.pm
                              DC transfer characteristic  Mon Nov 28 09:47:05  2022
--------------------------------------------------------------------------------
Index   temp-sweep      v(b1)           v(b2)           v(b3)           
--------------------------------------------------------------------------------
0	3.000000e+01	1.000000e+00	1.000000e+00	0.000000e+00	
1	1.000000e+02	1.000000e+00	1.000000e+00	0.000000e+00	

                              *INCLUDE 22nm_MGK.pm
                              DC transfer characteristic  Mon Nov 28 09:47:05  2022
--------------------------------------------------------------------------------
Index   temp-sweep      (-v(node1)*i(vd 
--------------------------------------------------------------------------------
0	3.000000e+01	2.416732e-05	
1	1.000000e+02	3.575260e-05	
Doing analysis at TEMP = 27.000000 and TNOM = 27.000000


No. of Data Rows : 2
                              *INCLUDE 22nm_MGK.pm
                              DC transfer characteristic  Mon Nov 28 09:47:06  2022
--------------------------------------------------------------------------------
Index   temp-sweep      v(node1)        v(a0)           v(a1)           
--------------------------------------------------------------------------------
0	3.000000e+01	1.000000e+00	0.000000e+00	0.000000e+00	
1	1.000000e+02	1.000000e+00	0.000000e+00	0.000000e+00	

                              *INCLUDE 22nm_MGK.pm
                              DC transfer characteristic  Mon Nov 28 09:47:06  2022
--------------------------------------------------------------------------------
Index   temp-sweep      v(a2)           v(a3)           v(b0)           
--------------------------------------------------------------------------------
0	3.000000e+01	0.000000e+00	1.000000e+00	1.000000e+00	
1	1.000000e+02	0.000000e+00	1.000000e+00	1.000000e+00	

                              *INCLUDE 22nm_MGK.pm
                              DC transfer characteristic  Mon Nov 28 09:47:06  2022
-------------------Note: Starting dynamic gmin stepping

Note: Dynamic gmin stepping completed
 Reference value :  3.00000e+01
Note: Starting dynamic gmin stepping

Note: Dynamic gmin stepping completed
 Reference value :  3.00000e+01
-------------------------------------------------------------
Index   temp-sweep      v(b1)           v(b2)           v(b3)           
--------------------------------------------------------------------------------
0	3.000000e+01	1.000000e+00	1.000000e+00	1.000000e+00	
1	1.000000e+02	1.000000e+00	1.000000e+00	1.000000e+00	

                              *INCLUDE 22nm_MGK.pm
                              DC transfer characteristic  Mon Nov 28 09:47:06  2022
--------------------------------------------------------------------------------
Index   temp-sweep      (-v(node1)*i(vd 
--------------------------------------------------------------------------------
0	3.000000e+01	2.404565e-05	
1	1.000000e+02	3.562562e-05	
Doing analysis at TEMP = 27.000000 and TNOM = 27.000000


No. of Data Rows : 2
                              *INCLUDE 22nm_MGK.pm
                              DC transfer characteristic  Mon Nov 28 09:47:06  2022
--------------------------------------------------------------------------------
Index   temp-sweep      v(node1)        v(a0)           v(a1)           
--------------------------------------------------------------------------------
0	3.000000e+01	1.000000e+00	0.000000e+00	0.000000e+00	
1	1.000000e+02	1.000000e+00	0.000000e+00	0.000000e+00	

                              *INCLUDE 22nm_MGK.pm
                              DC transfer characteristic  Mon Nov 28 09:47:06  2022
--------------------------------------------------------------------------------
Index   temp-sweep      v(a2)           v(a3)           v(b0)           
--------------------------------------------------------------------------------
0	3.000000e+01	1.000000e+00	0.000000e+00	0.000000e+00	
1	1.000000e+02	1.000000e+00	0.000000e+00	0.000000e+00	

                              *INCLUDE 22nm_MGK.pm
                              DC transfer characteristic  Mon Nov 28 09:47:06  2022
--------------------------------------------------------------------------------
Index   temp-sweep      v(b1)           v(b2)           v(b3)           
--------------------------------------------------------------------------------
0	3.000000e+01	0.000000e+00	0.000000e+00	0.000000e+00	
1	1.000000e+02	0.000000e+00	0.000000e+00	0.000000e+00	

                              *INCLUDE 22nm_MGK.pm
                              DC transfer characteristic  Mon Nov 28 09:47:06  2022
--------------------------------------------------------------------------------
Index   temp-sweep      (-v(node1)*i(vd 
--------------------------------------------------------------------------------
0	3.000000e+01	2.407851e-05	
1	1.000000e+02	3.469506e-05	
Doing analysis at TEMP = 27.000000 and TNOM = 27.000000


No. of Data Rows : 2
                              *INCLUDE 22nm_MGK.pm
                              DC transfer characteristic  Mon Nov 28 09:47:07  2022
--------------------------------------------------------------------------------
Index   temp-sweep      v(node1)        v(a0)           v(a1)           
--------------------------------------------------------------------------------
0	3.000000e+01	1.000000e+00	0.000000e+00	0.000000e+00	
1	1.000000e+02	1.000000e+00	0.000000e+00	0.000000e+00	

                              *INCLUDE 22nm_MGK.pm
                              DC transfer characteristic  MNote: Starting dynamic gmin stepping
Trying gmin =   1.0000E-03 Note: One successful gmin step
Trying gmin =   1.0000E-04 Note: One successful gmin step
Trying gmin =   1.0000E-05 Note: One successful gmin step
Trying gmin =   1.0000E-06 Warning: Further gmin increment
Trying gmin =   5.6234E-06 Note: One successful gmin step
Trying gmin =   3.1623E-06 Note: One successful gmin step
Trying gmin =   1.3335E-06 Note: One successful gmin step
Trying gmin =   3.6517E-07 Note: One successful gmin step
Trying gmin =   5.2330E-08 Note: One successful gmin step
Trying gmin =   5.2330E-09 Note: One successful gmin step
Trying gmin =   5.2330E-10 Note: One successful gmin step
Trying gmin =   1.6548E-10 Note: One successful gmin step
Trying gmin =   2.9427E-11 Note: One successful gmin step
Trying gmin =   2.9427E-12 Note: One successful gmin step
Trying gmin =   1.0000E-12 Note: One successful gmin step
Note: Dynamic gmin stepping completed
 Reference value :  3.00000e+01
Note: Starting dynamic gmin stepping
Trying gmin =   1.0000E-03 Note: One successful gmin step
Trying gmin =   1.0000E-04 Note: One successful gmin step
Trying gmin =   1.0000E-05 Note: One successful gmin step
Trying gmin =   1.0000E-06 Warning: Further gmin increment
Trying gmin =   5.6234E-06 Note: One successful gmin step
Trying gmin =   3.1623E-06 Note: One successful gmin step
Trying gmin =   1.3335E-06 Note: One successful gmin step
Trying gmin =   3.6517E-07 Note: One successful gmin step
Trying gmin =   5.2330E-08 Note: One successful gmin step
Trying gmin =   5.2330E-09 Note: One successful gmin step
Trying gmin =   5.2330E-10 Note: One successful gmin step
Trying gmin =   1.6548E-10 Note: One successful gmin step
Trying gmin =   2.9427E-11 Note: One successful gmin step
Trying gmin =   2.9427E-12 Note: One successful gmin step
Trying gmin =   1.0000E-12 Note: One successful gmin step
Note: Dynamic gmin stepping completed
 Reference value :  3.00000e+01
on Nov 28 09:47:07  2022
--------------------------------------------------------------------------------
Index   temp-sweep      v(a2)           v(a3)           v(b0)           
--------------------------------------------------------------------------------
0	3.000000e+01	1.000000e+00	0.000000e+00	0.000000e+00	
1	1.000000e+02	1.000000e+00	0.000000e+00	0.000000e+00	

                              *INCLUDE 22nm_MGK.pm
[...]
Trying gmin =   5.6234E-06 Note: One successful gmin step
Trying gmin =   4.0679E-06 Warning: Further gmin increment
Trying gmin =   5.1861E-06 Note: One successful gmin step
Trying gmin =   4.5931E-06 Note: One successful gmin step
Trying gmin =   4.0679E-06 Note: One successful gmin step
Trying gmin =   3.6028E-06 Warning: Further gmin increment
Trying gmin =   3.9463E-06 Warning: Further gmin increment
Trying gmin =   4.0372E-06 Note: One successful gmin step
Trying gmin =   3.9915E-06 Note: One successful gmin step
Trying gmin =   3.9239E-06 Note: One successful gmin step
Trying gmin =   3.8247E-06 Note: One successful gmin step
Trying gmin =   3.6805E-06 Note: One successful gmin step
Trying gmin =   3.4744E-06 Note: One successful gmin step
Trying gmin =   3.1867E-06 Note: One successful gmin step
Trying gmin =   2.7992E-06 Note: One successful gmin step
Trying gmin =   2.3044E-06 Note: One successful gmin step
Trying gmin =   1.7213E-06 Note: One successful gmin step
Trying gmin =   1.1112E-06 Note: One successful gmin step
Trying gmin =   5.7638E-07 Note: One successful gmin step
Trying gmin =   2.1532E-07 Note: One successful gmin step
Trying gmin =   4.9162E-08 Note: One successful gmin step
Trying gmin =   5.3636E-09 Note: One successful gmin step
Trying gmin =   5.3636E-10 Note: One successful gmin step
Trying gmin =   5.3636E-11 Note: One successful gmin step
Trying gmin =   5.3636E-12 Note: One successful gmin step
Trying gmin =   1.0000E-12 Note: One successful gmin step
Note: Dynamic gmin stepping completed
 Reference value :  3.00000e+01
Warning - approaching max data size: current size = 4783.168 MB, limit = 4903.664 MB
---------------------------------------------------
Index   temp-sweep      v(b1)           v(b2)           v(b3)           
--------------------------------------------------------------------------------
0	3.000000e+01	0.000000e+00	0.000000e+00	1.000000e+00	
1	1.000000e+02	0.000000e+00	0.000000e+00	1.000000e+00	

                              *INCLUDE 22nm_MGK.pm
                              DC transfer characteristic  Mon Nov 28 09:49:07  2022
--------------------------------------------------------------------------------
Index   temp-sweep      (-v(node1)*i(vd 
--------------------------------------------------------------------------------
0	3.000000e+01	2.339329e-05	
1	1.000000e+02	3.490079e-05	
Doing analysis at TEMP = 27.000000 and TNOM = 27.000000


No. of Data Rows : 2
                              *INCLUDE 22nm_MGK.pm
                              DC transfer characteristic  Mon Nov 28 09:49:08  2022
--------------------------------------------------------------------------------
Index   temp-sweep      v(node1)        v(a0)           v(a1)           
--------------------------------------------------------------------------------
0	3.000000e+01	1.000000e+00	1.000000e+00	1.000000e+00	
1	1.000000e+02	1.000000e+00	1.000000e+00	1.000000e+00	

                              *INCLUDE 22nm_MGK.pm
                              DC transfer characteristic  Mon Nov 28 09:49:08  2022
--------------------------------------------------------------------------------
Index   temp-sweep      v(a2)           v(a3)           v(b0)           
--------------------------------------------------------------------------------
0	3.000000e+01	1.000000e+00	1.000000e+00	1.000000e+00	
1	1.000000e+02	1.000000e+00	1.000000e+00	1.000000e+00	

                              *INCLUDE 22nm_MGK.pm
                              DC transfer characteristic  Mon Nov 28 09:49:08  2022
--------------------------------------------------------------------------------
Index   temp-sweep      v(b1)           v(b2)           v(b3)           
--------------------------------------------------------------------------------
0	3.000000e+01	0.000000e+00	1.000000e+00	0.000000e+00	
1	1.000000e+02	0.000000e+00	1.000000e+00	0.000000e+00	

                              *INCLUDE 22nm_MGK.pm
                              DC transfer characteristic  Mon Nov 28 09:49:08  2022
--------------------------------------------------------------------------------
Index   temp-sweep      (-v(node1)*i(vd 
--------------------------------------------------------------------------------
0	3.000000e+01	2.339331e-05	
1	1.000000e+02	3.490226e-05	
Doing analysis at TEMP = 27.000000 and TNOM = 27.000000


No. of Data Rows : 2
                              *INCLUDE 22nm_MGK.pm
                              DC transfer characteristic  Mon Nov 28 09:49:09  2022
--------------------------------------------------------------------------------
Index   temp-sweep      v(node1)        v(a0)           v(a1)           
--------------------------------------------------------------------------------
0	3.000000e+01	1.000000e+00	1.000000e+00	1.000000e+00	
1	1.000000e+02	1.000000e+00	1.000000e+00	1.000000e+00	

                              *INCLUDE 22nm_MGK.pm
                              DC transfer characteristic  Mon Nov 28 Warning - approaching max data size: current size = 4783.168 MB, limit = 4903.664 MB
Warning - approaching max data size: current size = 4783.168 MB, limit = 4903.664 MB
Warning - approaching max data size: current size = 4783.168 MB, limit = 4902.680 MB
Warning - approaching max data size: current size = 4783.168 MB, limit = 4902.680 MB
Note: Starting dynamic gmin stepping
Trying gmin =   1.0000E-03 Note: One successful gmin step
Trying gmin =   1.0000E-04 Note: One successful gmin step
Trying gmin =   1.0000E-05 Note: One successful gmin step
Trying gmin =   1.0000E-06 Warning: Further gmin increment
Trying gmin =   5.6234E-06 Note: One successful gmin step
Trying gmin =   2.3714E-06 Note: One successful gmin step
Trying gmin =   1.0000E-06 Note: One successful gmin step
Trying gmin =   2.7384E-07 Note: One successful gmin step
Trying gmin =   3.9242E-08 Note: One successful gmin step
Trying gmin =   3.9242E-09 Note: One successful gmin step
Trying gmin =   3.9242E-10 Warning: Further gmin increment
Trying gmin =   2.2067E-09 Note: One successful gmin step
Trying gmin =   1.2409E-09 Note: One successful gmin step
Trying gmin =   6.9783E-10 Note: One successful gmin step
Trying gmin =   2.9427E-10 Note: One successful gmin step
Trying gmin =   8.0584E-11 Note: One successful gmin step
Trying gmin =   1.1548E-11 Note: One successful gmin step
Trying gmin =   1.1548E-12 Note: One successful gmin step
Trying gmin =   1.0000E-12 Note: One successful gmin step
Note: Dynamic gmin stepping completed
 Reference value :  3.00000e+01
Warning - approaching max data size: current size = 4801.656 MB, limit = 4930.531 MB
Warning - approaching max data size: current size = 4801.656 MB, limit = 4930.531 MB
Warning - approaching max data size: current size = 4801.656 MB, limit = 4930.531 MB
Note: Starting dynamic gmin stepping
Trying gmin =   1.0000E-03 Note: One successful gmin step
Trying gmin =   1.0000E-04 Note: One successful gmin step
Trying gmin =   1.0000E-05 Note: One successful gmin step
Trying gmin =   1.0000E-06 Warning: Further gmin increment
Trying gmin =   5.6234E-06 Note: One successful gmin step
Trying gmin =   2.3714E-06 Warning: Further gmin increment
Trying gmin =   4.5316E-06 Note: One successful gmin step
Trying gmin =   3.6517E-06 Note: One successful gmin step
Trying gmin =   2.9427E-06 Note: One successful gmin step
Trying gmin =   2.1288E-06 Note: One successful gmin step
Trying gmin =   1.3097E-06 Note: One successful gmin step
Trying gmin =   6.3209E-07 Note: One successful gmin step
Trying gmin =   2.1192E-07 Note: One successful gmin step
Trying gmin =   4.1139E-08 Note: One successful gmin step
Trying gmin =   4.1139E-09 Note: One successful gmin step
Trying gmin =   4.1139E-10 Warning: Further gmin increment
Trying gmin =   2.3134E-09 Warning: Further gmin increment
Trying gmin =   3.5625E-09 Note: One successful gmin step
Trying gmin =   2.8708E-09 Note: One successful gmin step
Trying gmin =   2.0767E-09 Note: One successful gmin step
Trying gmin =   1.5023E-09 Note: One successful gmin step
Trying gmin =   9.2432E-10 Note: One successful gmin step
Trying gmin =   4.4608E-10 Note: One successful gmin step
Trying gmin =   1.4956E-10 Note: One successful gmin step
Trying gmin =   2.9033E-11 Note: One successful gmin step
Trying gmin =   2.9033E-12 Note: One successful gmin step
Trying gmin =   1.0000E-12 Note: One successful gmin step
Note: Dynamic gmin stepping completed
 Reference value :  3.00000e+01
Warning - approaching max data size: current size = 4820.180 MB, limit = 4940.641 MB
09:49:09  2022
--------------------------------------------------------------------------------
Index   temp-sweep      v(a2)           v(a3)           v(b0)           
--------------------------------------------------------------------------------
0	3.000000e+01	1.000000e+00	1.000000e+00	1.000000e+00	
1	1.000000e+02	1.000000e+00	1.000000e+00	1.000000e+00	

                              *INCLUDE 22nm_MGK.pm
                              DC transfer characteristic  Mon Nov 28 09:49:09  2022
--------------------------------------------------------------------------------
Index   temp-sweep      v(b1)           v(b2)           v(b3)           
--------------------------------------------------------------------------------
0	3.000000e+01	0.000000e+00	1.000000e+00	1.000000e+00	
1	1.000000e+02	0.000000e+00	1.000000e+00	1.000000e+00	

                              *INCLUDE 22nm_MGK.pm
                              DC transfer characteristic  Mon Nov 28 09:49:09  2022
--------------------------------------------------------------------------------
Index   temp-sweep      (-v(node1)*i(vd 
--------------------------------------------------------------------------------
0	3.000000e+01	2.312630e-05	
1	1.000000e+02	3.437038e-05	
Doing analysis at TEMP = 27.000000 and TNOM = 27.000000


No. of Data Rows : 2
                              *INCLUDE 22nm_MGK.pm
                              DC transfer characteristic  Mon Nov 28 09:49:10  2022
--------------------------------------------------------------------------------
Index   temp-sweep      v(node1)        v(a0)           v(a1)           
--------------------------------------------------------------------------------
0	3.000000e+01	1.000000e+00	1.000000e+00	1.000000e+00	
1	1.000000e+02	1.000000e+00	1.000000e+00	1.000000e+00	

                              *INCLUDE 22nm_MGK.pm
                              DC transfer characteristic  Mon Nov 28 09:49:10  2022
--------------------------------------------------------------------------------
Index   temp-sweep      v(a2)           v(a3)           v(b0)           
--------------------------------------------------------------------------------
0	3.000000e+01	1.000000e+00	1.000000e+00	1.000000e+00	
1	1.000000e+02	1.000000e+00	1.000000e+00	1.000000e+00	

                              *INCLUDE 22nm_MGK.pm
                              DC transfer characteristic  Mon Nov 28 09:49:10  2022
--------------------------------------------------------------------------------
Index   temp-sweep      v(b1)           v(b2)           v(b3)           
--------------------------------------------------------------------------------
0	3.000000e+01	1.000000e+00	0.000000e+00	0.000000e+00	
1	1.000000e+02	1.000000e+00	0.000000e+00	0.000000e+00	

                              *INCLUDE 22nm_MGK.pm
                              DC transfer characteristic  Mon Nov 28 09:49:10  2022
--------------------------------------------------------------------------------
Index   temp-sweep      (-v(node1)*i(vd 
--------------------------------------------------------------------------------
0	3.000000e+01	2.388388e-05	
1	1.000000e+02	3.605543e-05	
Doing analysis at TEMP = 27.000000 and TNOM = 27.000000


No. of Data Rows : 2
                              *INCLUDE 22nm_MGK.pm
                         Warning - approaching max data size: current size = 4820.180 MB, limit = 4940.641 MB
Warning - approaching max data size: current size = 4820.180 MB, limit = 4940.641 MB
Warning - approaching max data size: current size = 4820.180 MB, limit = 4948.516 MB
Note: Starting dynamic gmin stepping

Note: Dynamic gmin stepping completed
 Reference value :  3.00000e+01
Warning - approaching max data size: current size = 4839.242 MB, limit = 4956.750 MB
Warning - approaching max data size: current size = 4839.242 MB, limit = 4956.750 MB
Warning - approaching max data size: current size = 4839.242 MB, limit = 4956.750 MB
     DC transfer characteristic  Mon Nov 28 09:49:11  2022
--------------------------------------------------------------------------------
Index   temp-sweep      v(node1)        v(a0)           v(a1)           
--------------------------------------------------------------------------------
0	3.000000e+01	1.000000e+00	1.000000e+00	1.000000e+00	
1	1.000000e+02	1.000000e+00	1.000000e+00	1.000000e+00	

                              *INCLUDE 22nm_MGK.pm
                              DC transfer characteristic  Mon Nov 28 09:49:11  2022
--------------------------------------------------------------------------------
Index   temp-sweep      v(a2)           v(a3)           v(b0)           
--------------------------------------------------------------------------------
0	3.000000e+01	1.000000e+00	1.000000e+00	1.000000e+00	
1	1.000000e+02	1.000000e+00	1.000000e+00	1.000000e+00	

                              *INCLUDE 22nm_MGK.pm
                              DC transfer characteristic  Mon Nov 28 09:49:11  2022
--------------------------------------------------------------------------------
Index   temp-sweep      v(b1)           v(b2)           v(b3)           
--------------------------------------------------------------------------------
0	3.000000e+01	1.000000e+00	0.000000e+00	1.000000e+00	
1	1.000000e+02	1.000000e+00	0.000000e+00	1.000000e+00	

                              *INCLUDE 22nm_MGK.pm
                              DC transfer characteristic  Mon Nov 28 09:49:11  2022
--------------------------------------------------------------------------------
Index   temp-sweep      (-v(node1)*i(vd 
--------------------------------------------------------------------------------
0	3.000000e+01	2.361698e-05	
1	1.000000e+02	3.552441e-05	
Doing analysis at TEMP = 27.000000 and TNOM = 27.000000


No. of Data Rows : 2
                              *INCLUDE 22nm_MGK.pm
                              DC transfer characteristic  Mon Nov 28 09:49:11  2022
--------------------------------------------------------------------------------
Index   temp-sweep      v(node1)        v(a0)           v(a1)           
--------------------------------------------------------------------------------
0	3.000000e+01	1.000000e+00	1.000000e+00	1.000000e+00	
1	1.000000e+02	1.000000e+00	1.000000e+00	1.000000e+00	

                              *INCLUDE 22nm_MGK.pm
                              DC transfer characteristic  Mon Nov 28 09:49:11  2022
--------------------------------------------------------------------------------
Index   temp-sweep      v(a2)           v(a3)           v(b0)           
--------------------------------------------------------------------------------
0	3.000000e+01	1.000000e+00	1.000000e+00	1.000000e+00	
1	1.000000e+02	1.000000e+00	1.000000e+00	1.000000e+00	

                              *INCLUDE 22nm_MGK.pm
                              DC transfer characteristic  Mon Nov 28 09:49:11  2022
--------------------------------------------------------------------------------
Index   temp-sweep      v(b1)           v(b2)           v(b3)           
--------------------------------------------------------------------------------
0	3.000000e+01	1.000000e+00	1.000000e+00	0.000000e+00	
1	1.000000e+02	1.000000e+00	1.000000e+00	0.000000e+00	

                              *INCLUDE 22nm_MGK.pm
                              DC transfer characteristic  Mon Nov 28 09:49:11  2022
--------------------------------------------------------------------------------
Index   temp-sweep      (-v(node1)*i(vd 
--------------------------------------------------------------------------------
0	3.000000e+01	2.361714e-05	
1	1.000000e+02	3.552777e-05	
Doing analysis at TNote: Starting dynamic gmin stepping
Trying gmin =   1.0000E-03 Note: One successful gmin step
Trying gmin =   1.0000E-04 Note: One successful gmin step
Trying gmin =   1.0000E-05 Note: One successful gmin step
Trying gmin =   1.0000E-06 Warning: Further gmin increment
Trying gmin =   5.6234E-06 Warning: Further gmin increment
Trying gmin =   8.6596E-06 Note: One successful gmin step
Trying gmin =   6.9783E-06 Note: One successful gmin step
Trying gmin =   5.0481E-06 Note: One successful gmin step
Trying gmin =   3.1059E-06 Note: One successful gmin step
Trying gmin =   1.4989E-06 Note: One successful gmin step
Trying gmin =   5.0254E-07 Note: One successful gmin step
Trying gmin =   9.7557E-08 Note: One successful gmin step
Trying gmin =   9.7557E-09 Note: One successful gmin step
Trying gmin =   9.7557E-10 Warning: Further gmin increment
Trying gmin =   5.4860E-09 Note: One successful gmin step
Trying gmin =   2.3134E-09 Note: One successful gmin step
Trying gmin =   9.7557E-10 Warning: Further gmin increment
Trying gmin =   1.8643E-09 Note: One successful gmin step
Trying gmin =   1.5023E-09 Note: One successful gmin step
Trying gmin =   1.0868E-09 Note: One successful gmin step
Trying gmin =   6.6864E-10 Note: One successful gmin step
Trying gmin =   3.2269E-10 Note: One successful gmin step
Trying gmin =   1.0819E-10 Note: One successful gmin step
Trying gmin =   2.1002E-11 Note: One successful gmin step
Trying gmin =   2.1002E-12 Note: One successful gmin step
Trying gmin =   1.0000E-12 Note: One successful gmin step
Note: Dynamic gmin stepping completed
 Reference value :  3.00000e+01
Warning - approaching max data size: current size = 4858.008 MB, limit = 4986.887 MB
Warning - approaching max data size: current size = 4858.008 MB, limit = 4983.430 MB
Error: no block to end.
Warning: ignoring previous error
EMP = 27.000000 and TNOM = 27.000000


No. of Data Rows : 2
                              *INCLUDE 22nm_MGK.pm
                              DC transfer characteristic  Mon Nov 28 09:49:12  2022
--------------------------------------------------------------------------------
Index   temp-sweep      v(node1)        v(a0)           v(a1)           
--------------------------------------------------------------------------------
0	3.000000e+01	1.000000e+00	1.000000e+00	1.000000e+00	
1	1.000000e+02	1.000000e+00	1.000000e+00	1.000000e+00	

                              *INCLUDE 22nm_MGK.pm
                              DC transfer characteristic  Mon Nov 28 09:49:12  2022
--------------------------------------------------------------------------------
Index   temp-sweep      v(a2)           v(a3)           v(b0)           
--------------------------------------------------------------------------------
0	3.000000e+01	1.000000e+00	1.000000e+00	1.000000e+00	
1	1.000000e+02	1.000000e+00	1.000000e+00	1.000000e+00	

                              *INCLUDE 22nm_MGK.pm
                              DC transfer characteristic  Mon Nov 28 09:49:12  2022
--------------------------------------------------------------------------------
Index   temp-sweep      v(b1)           v(b2)           v(b3)           
--------------------------------------------------------------------------------
0	3.000000e+01	1.000000e+00	1.000000e+00	1.000000e+00	
1	1.000000e+02	1.000000e+00	1.000000e+00	1.000000e+00	

                              *INCLUDE 22nm_MGK.pm
                              DC transfer characteristic  Mon Nov 28 09:49:12  2022
--------------------------------------------------------------------------------
Index   temp-sweep      (-v(node1)*i(vd 
--------------------------------------------------------------------------------
0	3.000000e+01	2.334588e-05	
1	1.000000e+02	3.487168e-05	
ngspice 1 -> 